  52
Data form file: P3HT_R2/n/SCF_n_PBE0_6-31G#_CHelpG_P3HT_1249_R2.log  geo_count:  1
H        34.685        13.071       111.994
C        34.850        13.650       111.080
C        35.980        13.410       110.300
H        36.740        12.700       110.460
C        36.010        14.310       109.200
C        34.900        15.100       109.290
S        33.700        14.910       110.550
C        37.150        14.230       108.110
H        37.254        15.183       107.581
H        36.920        13.468       107.357
C        38.420        13.880       108.900
H        39.269        13.721       108.227
H        38.285        12.954       109.469
C        38.680        15.070       109.840
H        37.758        15.343       110.363
H        38.989        15.945       109.260
C        39.740        14.680       110.810
H        39.345        13.991       111.564
H        40.116        15.555       111.350
C        40.840        14.030       110.020
H        41.244        14.759       109.310
H        40.418        13.202       109.440
C        42.030        13.470       110.870
H        42.523        14.255       111.452
H        41.701        12.706       111.582
H        42.800        13.009       110.243
C        34.810        16.080       108.290
C        35.760        17.140       108.370
H        36.520        17.280       109.120
C        35.240        18.110       107.530
C        34.080        17.790       106.830
S        33.390        16.180       107.190
C        35.980        19.410       107.220
H        35.592        20.202       107.869
H        35.773        19.697       106.184
C        37.550        19.340       107.410
H        37.783        19.026       108.433
H        37.982        20.336       107.267
C        38.150        18.350       106.400
H        37.912        18.644       105.372
H        37.743        17.344       106.545
C        39.650        18.380       106.650
H        40.052        19.393       106.544
H        40.186        17.749       105.934
C        39.830        17.860       108.090
H        39.339        16.891       108.228
H        39.389        18.547       108.820
C        41.350        17.750       108.270
H        41.800        17.060       107.548
H        41.849        18.716       108.140
H        41.620        17.386       109.267
H        33.657        18.507       106.119
