  77
Data form file: P3HT_R3/n/SCF_n_PBE0_6-31G#_CHelpG_P3HT_1257_R3.log  geo_count:  1
H        20.407        54.796        90.220
C        20.020        55.410        89.400
C        18.750        55.210        88.940
H        18.070        54.370        89.280
C        18.490        56.270        88.090
C        19.630        57.080        87.970
S        21.130        56.610        88.770
C        17.240        56.360        87.270
H        17.390        55.850        86.313
H        17.021        57.409        87.046
C        16.050        55.740        87.990
H        16.080        55.959        89.062
H        16.052        54.650        87.888
C        14.800        56.350        87.340
H        13.903        55.993        87.858
H        14.725        56.017        86.299
C        14.870        57.850        87.400
H        15.822        58.196        86.983
H        14.834        58.184        88.442
C        13.710        58.480        86.620
H        13.776        58.207        85.562
H        13.767        59.572        86.676
C        12.390        57.990        87.210
H        12.295        56.901        87.153
H        12.286        58.263        88.265
H        11.525        58.412        86.687
C        19.420        58.240        87.300
C        20.500        58.490        86.450
H        21.270        57.730        86.250
C        20.260        59.680        85.720
C        19.040        60.220        86.240
S        18.190        59.470        87.640
C        21.010        60.270        84.590
H        21.841        60.870        84.977
H        20.355        60.947        84.031
C        21.560        59.220        83.640
H        22.267        58.565        84.159
H        22.106        59.694        82.818
C        20.380        58.410        83.100
H        19.772        59.041        82.443
H        19.741        58.093        83.931
C        20.860        57.170        82.320
H        21.876        57.349        81.952
H        20.213        57.021        81.449
C        20.860        55.850        83.180
H        21.464        56.031        84.075
H        21.360        55.069        82.598
C        19.530        55.380        83.580
H        18.998        56.121        84.186
H        18.894        55.163        82.715
H        19.581        54.462        84.175
C        18.510        61.420        85.710
C        18.040        62.250        86.750
H        18.320        62.170        87.790
C        17.120        63.120        86.190
C        16.880        62.820        84.830
S        17.810        61.550        84.110
C        16.480        64.210        87.000
H        16.263        65.054        86.337
H        17.201        64.556        87.748
C        15.180        63.830        87.730
H        14.352        63.844        87.014
H        14.967        64.584        88.495
C        15.240        62.440        88.400
H        16.094        62.389        89.083
H        15.386        61.664        87.642
C        13.940        62.200        89.160
H        13.072        62.256        88.494
H        13.789        62.953        89.941
C        14.090        60.800        89.760
H        13.873        60.023        89.019
H        13.396        60.647        90.593
C        15.550        60.730        90.230
H        16.254        60.874        89.404
H        15.777        61.497        90.978
H        15.788        59.763        90.685
H        16.127        63.385        84.271
