  102
Data form file: P3HT_R4/n/SCF_n_PBE0_6-31G#_CHelpG_P3HT_1249_R4.log  geo_count:  1
H        34.685        13.071       111.994
C        34.850        13.650       111.080
C        35.980        13.410       110.300
H        36.740        12.700       110.460
C        36.010        14.310       109.200
C        34.900        15.100       109.290
S        33.700        14.910       110.550
C        37.150        14.230       108.110
H        37.254        15.183       107.581
H        36.920        13.468       107.357
C        38.420        13.880       108.900
H        39.269        13.721       108.227
H        38.285        12.954       109.469
C        38.680        15.070       109.840
H        37.758        15.343       110.363
H        38.989        15.945       109.260
C        39.740        14.680       110.810
H        39.345        13.991       111.564
H        40.116        15.555       111.350
C        40.840        14.030       110.020
H        41.244        14.759       109.310
H        40.418        13.202       109.440
C        42.030        13.470       110.870
H        42.523        14.255       111.452
H        41.701        12.706       111.582
H        42.800        13.009       110.243
C        34.810        16.080       108.290
C        35.760        17.140       108.370
H        36.520        17.280       109.120
C        35.240        18.110       107.530
C        34.080        17.790       106.830
S        33.390        16.180       107.190
C        35.980        19.410       107.220
H        35.592        20.202       107.869
H        35.773        19.697       106.184
C        37.550        19.340       107.410
H        37.783        19.026       108.433
H        37.982        20.336       107.267
C        38.150        18.350       106.400
H        37.912        18.644       105.372
H        37.743        17.344       106.545
C        39.650        18.380       106.650
H        40.052        19.393       106.544
H        40.186        17.749       105.934
C        39.830        17.860       108.090
H        39.339        16.891       108.228
H        39.389        18.547       108.820
C        41.350        17.750       108.270
H        41.800        17.060       107.548
H        41.849        18.716       108.140
H        41.620        17.386       109.267
C        33.580        18.790       105.980
C        33.720        18.540       104.630
H        34.130        17.590       104.290
C        33.300        19.590       103.810
C        33.000        20.640       104.650
S        32.870        20.350       106.390
C        33.280        19.550       102.330
H        34.111        18.945       101.951
H        33.401        20.557       101.917
C        31.940        18.950       101.850
H        31.127        19.675       101.961
H        31.671        18.072       102.446
C        32.140        18.570       100.370
H        32.884        17.769       100.307
H        32.540        19.436        99.833
C        30.840        18.100        99.660
H        30.051        18.845        99.810
H        30.494        17.165       100.112
C        31.090        17.900        98.180
H        30.181        17.501        97.719
H        31.876        17.148        98.053
C        31.490        19.150        97.470
H        30.723        19.927        97.544
H        32.413        19.576        97.877
H        31.664        18.978        96.403
C        32.550        21.760       103.990
C        31.220        21.860       104.230
H        30.630        21.060       104.750
C        30.770        23.100       103.740
C        31.720        23.650       102.910
S        33.320        22.870       102.870
C        29.430        23.680       104.270
H        29.498        24.772       104.311
H        29.259        23.325       105.292
C        28.260        23.270       103.380
H        28.101        22.187       103.371
H        28.404        23.570       102.337
C        27.120        24.020       104.050
H        27.040        23.720       105.100
H        26.170        23.763       103.570
C        27.370        25.500       103.950
H        27.518        25.785       102.903
H        28.288        25.762       104.487
C        26.200        26.260       104.530
H        25.257        25.775       104.258
H        26.168        27.278       104.127
C        26.340        26.310       106.080
H        26.354        25.309       106.523
H        27.264        26.808       106.393
H        25.513        26.853       106.549
H        31.475        24.532       102.309
