  127
Data form file: P3HT_R5/n/SCF_n_PBE0_6-31G#_CHelpG_P3HT_1260_R5.log  geo_count:  1
H        14.240        85.752        92.091
C        14.290        86.640        92.730
C        13.320        86.860        93.670
H        12.430        86.240        93.860
C        13.390        88.170        94.160
C        14.400        88.870        93.490
S        15.590        87.850        92.620
C        12.450        88.750        95.220
H        11.558        89.172        94.745
H        12.944        89.564        95.760
C        12.050        87.630        96.200
H        12.673        87.683        97.099
H        12.230        86.653        95.740
C        10.600        87.780        96.560
H        10.405        88.795        96.922
H        10.340        87.091        97.371
C         9.710        87.490        95.330
H        10.038        86.554        94.865
H         9.847        88.289        94.594
C         8.210        87.380        95.680
H         7.800        88.382        95.845
H         8.094        86.820        96.614
C         7.420        86.680        94.560
H         7.490        87.219        93.610
H         7.783        85.664        94.375
H         6.355        86.597        94.799
C        14.130        90.210        93.180
C        14.260        90.170        91.790
H        14.070        89.280        91.250
C        14.930        91.330        91.360
C        15.110        92.190        92.440
S        14.480        91.640        94.010
C        15.320        91.510        89.850
H        15.230        92.573        89.604
H        14.587        90.966        89.246
C        16.710        91.040        89.460
H        17.456        91.632        90.000
H        16.864        91.217        88.390
C        16.940        89.550        89.760
H        16.890        89.405        90.844
H        17.953        89.286        89.438
C        15.960        88.600        89.100
H        15.907        88.775        88.020
H        14.949        88.735        89.499
C        16.470        87.130        89.390
H        16.006        86.396        88.723
H        16.243        86.811        90.413
C        17.960        87.300        89.140
H        18.169        87.628        88.116
H        18.406        88.044        89.809
H        18.511        86.366        89.293
C        15.780        93.370        92.180
C        14.990        94.480        92.440
H        14.260        94.500        93.200
C        15.520        95.620        91.780
C        16.730        95.170        91.060
S        17.420        93.650        91.570
C        15.040        97.040        91.940
H        13.976        97.065        92.199
H        15.149        97.596        91.003
C        15.870        97.640        93.020
H        16.919        97.713        92.715
H        15.842        97.025        93.926
C        15.300        99.060        93.320
H        15.723        99.444        94.254
H        14.214        99.007        93.452
C        15.650       100.000        92.150
H        15.285        99.587        91.204
H        16.736       100.106        92.055
C        15.000       101.340        92.440
H        13.968       101.326        92.073
H        15.533       102.124        91.892
C        14.990       101.700        93.940
H        14.444       100.961        94.536
H        16.002       101.756        94.355
H        14.517       102.670        94.126
C        17.250        95.920        90.020
C        17.660        94.990        89.000
H        17.530        93.900        89.050
C        18.520        95.630        88.110
C        18.430        97.000        88.380
S        17.490        97.630        89.760
C        19.310        94.840        87.150
H        19.486        93.838        87.554
H        20.291        95.306        87.008
C        18.620        94.720        85.810
H        19.351        94.545        85.014
H        18.093        95.648        85.563
C        17.630        93.550        85.890
H        17.063        93.427        84.961
H        16.896        93.687        86.691
C        18.560        92.350        86.160
H        19.033        92.455        87.142
H        19.364        92.323        85.417
C        17.740        91.080        86.100
H        17.076        91.126        85.230
H        17.108        91.023        86.992
C        18.580        89.800        86.010
H        19.214        89.787        85.117
H        19.245        89.684        86.872
H        17.955        88.902        85.968
C        19.080        97.800        87.540
C        20.020        98.580        88.240
H        20.240        98.410        89.280
C        20.520        99.550        87.390
C        20.120        99.340        86.050
S        18.890        98.010        85.760
C        21.280       100.800        87.740
H        21.863       101.123        86.871
H        21.993       100.577        88.541
C        20.380       101.900        88.170
H        19.788       101.549        89.021
H        19.683       102.116        87.353
C        21.050       103.200        88.570
H        21.796       103.499        87.826
H        21.578       103.089        89.523
C        19.950       104.240        88.680
H        20.315       105.139        89.188
H        19.112       103.858        89.273
C        19.510       104.560        87.270
H        19.313       103.650        86.693
H        20.281       105.113        86.723
C        18.280       105.370        87.470
H        17.508       104.816        88.013
H        18.478       106.282        88.043
H        17.836       105.683        86.519
H        20.543        99.958        85.251
