  152
Data form file: P3HT_R6/n/SCF_n_PBE0_6-31G#_CHelpG_P3HT_1353_R6.log  geo_count:  1
H        70.581        68.537        63.215
C        70.360        67.720        62.520
C        69.120        67.620        61.960
H        68.220        68.130        62.400
C        69.140        66.620        60.940
C        70.410        66.020        60.890
S        71.610        66.500        62.100
C        68.030        66.060        60.200
H        68.343        65.564        59.275
H        67.285        66.811        59.918
C        67.400        65.000        61.220
H        66.970        65.538        62.071
H        68.199        64.357        61.604
C        66.310        64.130        60.550
H        66.758        63.458        59.811
H        65.592        64.761        60.016
C        65.620        63.340        61.650
H        64.986        62.584        61.175
H        64.965        64.026        62.197
C        66.510        62.630        62.670
H        65.928        62.295        63.535
H        67.288        63.301        63.048
C        67.140        61.420        61.930
H        66.379        60.728        61.554
H        67.738        61.733        61.068
H        67.802        60.840        62.582
C        70.680        65.470        59.640
C        71.890        66.080        59.230
H        72.330        67.070        59.650
C        72.470        65.370        58.100
C        71.420        64.530        57.620
S        70.010        64.150        58.640
C        73.900        65.660        57.620
H        73.935        66.559        56.995
H        74.290        64.836        57.013
C        74.710        65.840        58.900
H        74.886        64.862        59.360
H        74.132        66.433        59.616
C        76.010        66.510        58.620
H        76.555        65.993        57.823
H        76.655        66.501        59.505
C        75.700        67.960        58.200
H        75.299        68.544        59.035
H        74.956        67.997        57.398
C        77.080        68.530        57.720
H        76.936        69.496        57.224
H        77.532        67.854        56.987
C        77.980        68.680        58.940
H        77.553        69.362        59.683
H        78.147        67.724        59.446
H        78.966        69.076        58.676
C        71.690        64.200        56.300
C        70.680        64.620        55.430
H        69.860        65.300        55.720
C        70.840        64.130        54.120
C        72.040        63.440        54.050
S        73.010        63.230        55.540
C        69.950        64.680        53.040
H        70.543        64.868        52.139
H        69.533        65.639        53.363
C        68.780        63.720        52.680
H        68.902        62.768        53.207
H        68.794        63.499        51.608
C        67.470        64.380        53.070
H        67.329        65.299        52.492
H        67.496        64.665        54.127
C        66.310        63.430        52.820
H        66.457        62.554        53.461
H        66.376        63.096        51.779
C        64.880        63.930        53.050
H        64.188        63.124        52.784
H        64.695        64.766        52.368
C        64.540        64.400        54.490
H        64.671        63.599        55.225
H        65.176        65.232        54.811
H        63.503        64.742        54.576
C        72.220        62.790        52.820
C        71.520        61.580        52.780
H        70.950        61.220        53.610
C        71.590        61.060        51.480
C        72.610        61.710        50.740
S        73.280        63.180        51.430
C        70.720        59.820        51.180
H        71.234        59.213        50.427
H        69.774        60.161        50.747
C        70.380        58.880        52.410
H        69.828        59.435        53.175
H        71.300        58.510        52.875
C        69.520        57.690        51.860
H        68.626        58.110        51.388
H        69.190        57.090        52.714
C        70.210        56.810        50.890
H        71.077        56.331        51.357
H        70.587        57.394        50.044
C        69.240        55.770        50.410
H        69.752        54.903        49.980
H        68.576        56.160        49.631
C        68.460        55.390        51.670
H        69.114        54.990        52.452
H        67.937        56.249        52.103
H        67.702        54.626        51.468
C        72.960        61.200        49.480
C        73.550        62.180        48.660
H        73.830        63.230        49.020
C        73.850        61.540        47.440
C        73.570        60.190        47.450
S        72.790        59.550        48.870
C        74.700        62.170        46.360
H        74.510        61.676        45.402
H        75.761        62.025        46.590
C        74.390        63.620        46.260
H        74.498        64.074        47.250
H        73.344        63.739        45.957
C        75.270        64.410        45.270
H        75.651        63.729        44.502
H        76.136        64.817        45.802
C        74.500        65.530        44.620
H        73.509        65.163        44.335
H        75.014        65.830        43.701
C        74.330        66.760        45.510
H        73.523        66.603        46.233
H        74.055        67.634        44.910
C        75.650        66.990        46.220
H        75.938        66.133        46.838
H        76.470        67.163        45.515
H        75.613        67.860        46.883
C        73.560        59.540        46.180
C        73.620        58.180        46.420
H        73.860        57.680        47.340
C        73.000        57.490        45.350
C        72.580        58.440        44.410
S        72.850        60.130        44.700
C        72.870        55.950        45.310
H        73.774        55.512        44.873
H        72.030        55.665        44.668
C        72.660        55.430        46.710
H        73.230        56.004        47.448
H        72.979        54.387        46.810
C        71.160        55.580        46.920
H        70.890        56.636        47.028
H        70.848        55.074        47.840
C        70.460        54.970        45.710
H        70.574        53.881        45.711
H        70.908        55.340        44.782
C        68.970        55.350        45.770
H        68.410        54.841        44.978
H        68.840        56.425        45.611
C        68.480        54.940        47.130
H        68.595        53.864        47.300
H        69.025        55.448        47.933
H        67.419        55.171        47.271
H        72.081        58.115        43.491
