  202
Data form file: P3HT_R8/SCF_n_PBE0_6-31G#_CHelpG_P3HT_1020_R8/SCF_n_PBE0_6-31G#_CHelpG_P3HT_1020_R8.log  geo_count:  1
H        80.645       101.741        56.543
C        80.280       100.710        56.590
C        80.940        99.730        55.930
H        81.770        99.940        55.280
C        80.410        98.500        56.270
C        79.470        98.670        57.230
S        78.840       100.320        57.520
C        80.950        97.240        55.650
H        81.002        96.483        56.439
H        81.974        97.449        55.322
C        80.220        96.610        54.470
H        79.280        96.190        54.843
H        80.832        95.780        54.102
C        79.890        97.510        53.280
H        79.262        98.350        53.594
H        79.330        96.955        52.520
C        81.230        98.030        52.690
H        81.535        97.449        51.813
H        82.043        97.962        53.420
C        80.940        99.540        52.300
H        80.253        99.925        53.061
H        80.404        99.511        51.346
C        82.040       100.520        52.160
H        82.607       100.636        53.090
H        82.757       100.225        51.386
H        81.671       101.514        51.888
C        79.070        97.410        57.740
C        79.390        97.150        59.070
H        79.950        97.850        59.770
C        78.600        96.040        59.530
C        77.900        95.440        58.500
S        77.910        96.270        56.940
C        78.570        95.550        61.010
H        79.402        94.854        61.161
H        77.638        94.998        61.173
C        78.670        96.680        62.090
H        79.345        97.470        61.745
H        79.088        96.276        63.018
C        77.260        97.250        62.340
H        76.602        96.473        62.742
H        76.816        97.592        61.399
C        77.390        98.400        63.320
H        77.939        98.100        64.218
H        76.409        98.753        63.655
C        78.130        99.470        62.550
H        77.540        99.786        61.683
H        79.076        99.073        62.168
C        78.400       100.670        63.460
H        77.474       101.109        63.845
H        79.007       100.397        64.329
H        78.936       101.469        62.937
C        77.420        94.190        58.760
C        78.440        93.250        58.700
H        79.490        93.500        58.450
C        77.910        92.020        59.050
C        76.550        92.160        59.410
S        75.790        93.730        59.200
C        78.710        90.680        59.020
H        78.483        90.130        58.101
H        78.406        90.044        59.858
C        80.160        91.010        59.100
H        80.567        90.713        60.072
H        80.313        92.090        59.006
C        80.900        90.280        57.980
H        80.437        90.541        57.023
H        80.779        89.201        58.122
C        82.410        90.600        57.900
H        82.823        90.149        56.992
H        82.918        90.142        58.755
C        82.700        92.110        57.890
H        83.783        92.274        57.898
H        82.289        92.567        58.796
C        82.080        92.840        56.620
H        82.478        92.439        55.682
H        80.991        92.731        56.575
H        82.291        93.914        56.621
C        76.080        91.050        60.220
C        75.630        91.640        61.390
H        75.970        92.650        61.680
C        74.690        90.760        62.020
C        74.860        89.440        61.450
S        75.780        89.320        59.890
C        73.610        91.210        63.040
H        73.396        90.385        63.728
H        72.683        91.442        62.506
C        74.060        92.450        63.850
H        74.664        93.110        63.218
H        74.693        92.139        64.688
C        72.840        93.170        64.350
H        72.211        92.493        64.938
H        72.231        93.520        63.510
C        73.290        94.330        65.190
H        73.607        93.977        66.177
H        72.455        95.018        65.356
C        74.380        95.000        64.510
H        74.128        95.205        63.464
H        75.283        94.380        64.504
C        74.670        96.340        65.250
H        73.798        97.002        65.256
H        74.953        96.178        66.295
H        75.488        96.898        64.783
C        74.260        88.490        62.280
C        75.240        87.580        62.660
H        76.220        87.460        62.190
C        74.730        86.820        63.720
C        73.400        87.150        64.080
S        72.640        88.250        62.980
C        75.570        85.780        64.390
H        74.933        84.960        64.739
H        76.055        86.210        65.272
C        76.630        85.230        63.450
H        77.415        85.973        63.276
H        76.195        84.992        62.474
C        77.200        83.990        64.100
H        76.402        83.267        64.299
H        77.652        84.243        65.065
C        78.240        83.380        63.180
H        78.032        83.671        62.145
H        78.180        82.288        63.229
C        79.660        83.830        63.560
H        79.821        83.768        64.641
H        79.838        84.871        63.270
C        80.600        82.870        62.800
H        80.438        81.826        63.086
H        80.456        82.927        61.716
H        81.655        83.092        62.992
C        72.840        86.640        65.280
C        72.000        87.570        65.870
H        71.940        88.590        65.440
C        71.270        87.080        66.940
C        71.730        85.770        67.140
S        72.870        85.030        66.010
C        70.160        87.810        67.730
H        70.035        87.318        68.700
H        69.214        87.707        67.188
C        70.460        89.260        67.940
H        69.657        89.766        68.486
H        70.577        89.792        66.990
C        71.760        89.260        68.740
H        72.527        88.691        68.205
H        71.605        88.762        69.703
C        72.210        90.670        68.950
H        73.160        90.705        69.493
H        71.482        91.234        69.543
C        72.370        91.310        67.540
H        72.587        92.379        67.637
H        71.435        91.217        66.978
C        73.520        90.600        66.780
H        74.476        90.688        67.307
H        73.327        89.530        66.651
H        73.670        91.018        65.779
C        71.330        85.130        68.330
C        71.030        83.740        68.130
H        70.940        83.280        67.220
C        71.050        83.060        69.370
C        71.190        84.050        70.330
S        71.500        85.770        69.960
C        70.970        81.520        69.530
H        70.303        81.135        68.752
H        70.507        81.305        70.499
C        72.280        80.770        69.450
H        72.198        79.809        69.968
H        73.074        81.341        69.942
C        72.690        80.510        67.930
H        71.783        80.436        67.321
H        73.219        79.554        67.859
C        73.610        81.660        67.360
H        72.974        82.530        67.165
H        74.013        81.320        66.401
C        74.770        82.100        68.240
H        75.546        81.328        68.243
H        74.427        82.218        69.273
C        75.360        83.420        67.740
H        75.737        83.339        66.715
H        74.620        84.227        67.743
H        76.198        83.756        68.360
C        71.150        83.540        71.600
C        72.300        83.880        72.310
H        73.230        84.250        71.860
C        72.100        83.730        73.710
C        70.940        83.030        73.830
S        69.770        82.860        72.490
C        73.070        84.170        74.840
H        73.761        83.348        75.054
H        72.491        84.356        75.751
C        73.850        85.400        74.480
H        74.326        85.286        73.500
H        74.653        85.577        75.203
C        72.880        86.550        74.470
H        72.582        86.802        75.493
H        71.972        86.274        73.924
C        73.530        87.820        73.790
H        74.375        88.176        74.389
H        72.802        88.636        73.745
C        73.970        87.410        72.420
H        73.177        86.848        71.915
H        74.840        86.747        72.480
C        74.310        88.650        71.640
H        73.452        89.324        71.547
H        75.115        89.223        72.112
H        74.641        88.417        70.623
H        70.693        82.542        74.779
