  227
Data form file: P3HT_R9/SCF_n_PBE0_6-31G#_CHelpG_P3HT_1817_R9/SCF_n_PBE0_6-31G#_CHelpG_P3HT_1817_R9.log  geo_count:  1
H        31.107       201.780        36.101
C        30.410       202.280        35.420
C        30.230       203.650        35.500
H        30.840       204.300        36.110
C        29.270       204.040        34.600
C        28.670       202.930        33.960
S        29.470       201.350        34.170
C        28.960       205.500        34.290
H        28.003       205.551        33.760
H        29.730       205.886        33.614
C        28.890       206.390        35.510
H        29.843       206.371        36.048
H        28.120       206.029        36.200
C        28.560       207.860        35.080
H        28.709       208.547        35.919
H        27.511       207.945        34.778
C        29.490       208.190        33.930
H        29.188       207.597        33.060
H        30.503       207.877        34.204
C        29.530       209.640        33.530
H        30.113       209.775        32.613
H        30.009       210.245        34.307
C        28.070       210.110        33.310
H        27.568       209.535        32.525
H        27.464       210.005        34.216
H        28.018       211.163        33.015
C        27.380       203.090        33.510
C        26.560       202.120        34.030
H        26.840       201.550        34.910
C        25.290       202.120        33.530
C        25.140       203.210        32.640
S        26.620       204.130        32.320
C        24.180       201.130        33.910
H        23.461       201.031        33.090
H        23.628       201.493        34.783
C        24.830       199.760        34.220
H        25.810       199.905        34.687
H        24.991       199.201        33.292
C        23.900       198.960        35.170
H        22.938       198.761        34.687
H        23.690       199.537        36.077
C        24.620       197.670        35.500
H        24.554       196.977        34.655
H        24.141       197.181        36.355
C        26.080       197.960        35.820
H        26.199       198.904        36.361
H        26.689       198.037        34.913
C        26.510       196.750        36.690
H        25.912       196.669        37.604
H        26.402       195.801        36.155
H        27.557       196.821        37.002
C        23.840       203.520        32.360
C        23.830       204.070        31.100
H        24.360       203.700        30.180
C        22.780       205.000        31.040
C        22.060       204.920        32.240
S        22.590       203.850        33.520
C        22.460       205.720        29.730
H        21.440       206.117        29.764
H        22.506       205.012        28.896
C        23.460       206.880        29.480
H        23.257       207.316        28.496
H        24.476       206.473        29.461
C        23.400       208.030        30.560
H        22.983       207.621        31.486
H        22.719       208.810        30.205
C        24.780       208.660        30.860
H        24.613       209.579        31.431
H        25.236       208.941        29.905
C        25.760       207.800        31.620
H        26.632       208.398        31.904
H        26.120       206.992        30.974
C        25.120       207.220        32.850
H        24.766       207.998        33.534
H        24.255       206.595        32.606
H        25.815       206.592        33.417
C        21.130       205.910        32.420
C        21.490       206.530        33.600
H        22.230       206.170        34.250
C        20.530       207.520        33.880
C        19.610       207.570        32.770
S        19.710       206.430        31.440
C        20.530       208.350        35.180
H        19.927       207.844        35.941
H        20.066       209.325        34.996
C        21.940       208.530        35.670
H        22.149       209.581        35.897
H        22.666       208.224        34.909
C        22.040       207.680        36.890
H        23.040       207.792        37.321
H        21.923       206.630        36.603
C        21.000       208.000        37.990
H        20.003       207.752        37.612
H        21.019       209.077        38.188
C        21.230       207.250        39.310
H        20.457       207.530        40.034
H        22.197       207.539        39.735
C        21.200       205.710        39.090
H        20.240       205.372        38.685
H        21.973       205.381        38.388
H        21.363       205.159        40.022
C        18.770       208.650        33.010
C        19.410       209.830        32.650
H        20.330       209.930        32.100
C        18.700       210.880        33.200
C        17.430       210.380        33.560
S        17.080       208.720        33.550
C        19.400       212.240        33.270
H        18.663       213.048        33.222
H        20.072       212.365        32.414
C        20.190       212.320        34.580
H        20.438       213.367        34.782
H        21.131       211.773        34.462
C        19.430       211.740        35.820
H        19.210       210.676        35.680
H        18.473       212.251        35.965
C        20.370       211.960        37.040
H        20.652       213.017        37.087
H        21.288       211.382        36.891
C        19.720       211.550        38.350
H        20.400       211.767        39.180
H        19.544       210.469        38.349
C        18.400       212.280        38.570
H        18.532       213.366        38.602
H        17.678       212.072        37.773
H        17.923       211.991        39.513
C        16.480       211.330        33.960
C        15.950       210.980        35.200
H        16.390       210.230        35.760
C        14.730       211.650        35.380
C        14.740       212.730        34.510
S        15.810       212.700        33.070
C        13.660       211.360        36.480
H        12.704       211.817        36.205
H        13.968       211.806        37.432
C        13.520       209.860        36.610
H        12.777       209.620        37.378
H        14.471       209.424        36.933
C        13.100       209.250        35.280
H        13.315       208.176        35.284
H        13.690       209.692        34.470
C        11.650       209.480        35.040
H        11.393       210.544        35.052
H        11.025       209.004        35.803
C        11.450       208.870        33.690
H        11.890       209.513        32.921
H        10.380       208.787        33.473
C        12.100       207.450        33.600
H        13.179       207.481        33.783
H        11.674       206.757        34.333
H        11.958       206.996        32.614
C        13.710       213.630        34.710
C        14.170       214.900        34.970
H        15.100       215.170        35.500
C        13.270       215.840        34.460
C        12.160       215.160        33.940
S        11.980       213.480        34.290
C        13.680       217.290        34.460
H        14.192       217.539        35.395
H        12.797       217.934        34.394
C        14.620       217.570        33.260
H        14.046       217.490        32.331
H        15.398       216.800        33.229
C        15.250       218.920        33.350
H        14.507       219.702        33.535
H        15.761       219.191        32.420
C        16.210       218.790        34.490
H        16.795       217.869        34.398
H        15.672       218.736        35.442
C        17.160       220.020        34.490
H        17.859       219.991        35.332
H        16.605       220.960        34.574
C        17.870       219.890        33.150
H        18.424       218.949        33.069
H        17.169       219.918        32.310
H        18.592       220.698        32.988
C        11.560       215.800        32.870
C        10.170       216.080        33.080
H         9.570       216.010        33.960
C         9.660       216.690        31.910
C        10.660       216.780        30.920
S        12.250       216.040        31.240
C         8.240       217.190        31.890
H         8.158       218.108        31.298
H         7.897       217.431        32.902
C         7.370       216.080        31.280
H         7.562       215.153        31.830
H         7.692       215.921        30.246
C         5.900       216.350        31.290
H         5.706       217.269        30.726
H         5.580       216.525        32.323
C         5.030       215.230        30.700
H         5.291       214.270        31.156
H         5.214       215.136        29.625
C         3.570       215.560        30.960
H         3.305       216.552        30.579
H         3.341       215.564        32.031
C         2.820       214.460        30.230
H         3.041       214.455        29.158
H         3.076       213.466        30.611
H         1.735       214.568        30.330
C        10.490       217.840        30.090
C         9.940       217.540        28.850
H         9.240       216.810        28.590
C        10.310       218.480        27.860
C        11.300       219.260        28.350
S        11.560       219.280        30.110
C         9.680       218.550        26.490
H         9.767       219.570        26.100
H         8.612       218.323        26.568
C        10.330       217.580        25.510
H        10.095       216.550        25.798
H        11.419       217.686        25.552
C         9.840       217.850        24.120
H        10.456       218.651        23.697
H         8.815       218.228        24.193
C         9.840       216.710        23.150
H         9.435       215.809        23.622
H        10.863       216.477        22.836
C         8.990       217.080        21.920
H         8.811       216.170        21.338
H         9.570       217.766        21.294
C         7.620       217.740        22.220
H         6.974       217.090        22.819
H         7.729       218.678        22.775
H         7.069       217.976        21.304
H        11.914       219.856        27.667
