  252
Data form file: SCF_n_PBE0_6-31G#_CHelpG_P3HT_564_R10/SCF_n_PBE0_6-31G#_CHelpG_P3HT_564_R10.log  geo_count:  1
H        92.709       144.421       135.735
C        92.860       145.190       136.500
C        92.390       144.970       137.840
H        91.860       144.080       138.050
C        92.830       145.950       138.740
C        93.520       146.960       138.040
S        93.670       146.760       136.230
C        92.790       145.810       140.260
H        91.824       146.159       140.639
H        93.562       146.442       140.711
C        93.010       144.360       140.660
H        92.419       143.699       140.017
H        92.671       144.198       141.689
C        94.500       144.010       140.540
H        95.121       144.820       140.936
H        94.781       143.869       139.491
C        94.750       142.690       141.350
H        94.031       141.921       141.049
H        94.599       142.870       142.420
C        96.160       142.250       141.070
H        96.349       141.267       141.513
H        96.875       142.947       141.519
C        96.370       142.190       139.550
H        95.684       141.485       139.069
H        96.209       143.163       139.075
H        97.385       141.873       139.288
C        94.360       147.540       138.940
C        95.600       146.880       139.020
H        95.940       146.090       138.320
C        96.380       147.420       140.100
C        95.580       148.300       140.780
S        94.100       148.890       139.990
C        97.730       146.870       140.600
H        97.611       146.530       141.634
H        98.463       147.684       140.605
C        98.260       145.730       139.760
H        97.438       145.072       139.458
H        98.960       145.125       140.346
C        98.970       146.280       138.510
H        99.967       146.649       138.772
H        98.412       147.129       138.100
C        99.060       145.170       137.510
H        99.849       145.394       136.784
H        98.118       145.098       136.956
C        99.360       143.800       138.170
H        98.671       143.640       139.006
H       100.376       143.808       138.579
C        99.220       142.650       137.160
H        98.210       142.593       136.741
H        99.908       142.760       136.315
H        99.430       141.676       137.615
C        95.960       148.420       142.150
C        94.810       148.030       142.830
H        93.910       147.710       142.390
C        95.000       148.130       144.210
C        96.300       148.540       144.490
S        97.360       148.990       143.140
C        93.990       147.840       145.330
H        93.363       148.726       145.476
H        94.538       147.666       146.262
C        93.080       146.630       145.060
H        92.453       146.799       144.178
H        92.403       146.452       145.902
C        94.020       145.450       144.850
H        94.662       145.347       145.731
H        94.671       145.663       143.995
C        93.300       144.150       144.610
H        93.036       144.052       143.552
H        92.362       144.126       145.174
C        94.190       143.050       145.030
H        94.944       142.891       144.252
H        93.600       142.130       145.105
C        94.910       143.260       146.350
H        95.550       144.149       146.331
H        94.211       143.390       147.183
H        95.553       142.412       146.606
C        96.660       148.400       145.840
C        97.090       147.070       146.000
H        96.960       146.260       145.310
C        97.800       147.000       147.270
C        97.680       148.200       147.910
S        96.720       149.450       147.190
C        98.530       145.710       147.680
H        97.983       144.844       147.294
H        98.536       145.626       148.772
C        99.920       145.710       147.160
H       100.543       145.012       147.729
H       100.371       146.702       147.270
C        99.890       145.310       145.700
H       100.904       145.309       145.288
H        99.311       146.037       145.121
C        99.280       143.950       145.590
H        98.304       143.945       146.087
H        99.908       143.223       146.116
C        99.130       143.560       144.190
H        98.921       142.487       144.118
H       100.062       143.743       143.646
C        97.990       144.340       143.510
H        97.026       144.167       143.999
H        98.165       145.421       143.528
H        97.868       144.056       142.460
C        98.190       148.350       149.230
C        99.530       148.660       149.120
H       100.170       148.630       148.260
C       100.140       148.740       150.330
C        99.170       148.710       151.310
S        97.500       148.380       150.860
C       101.610       148.890       150.650
H       101.817       148.534       151.664
H       101.903       149.945       150.613
C       102.430       148.080       149.630
H       102.553       148.636       148.695
H       101.924       147.143       149.376
C       103.750       147.830       150.300
H       104.335       148.751       150.391
H       104.364       147.127       149.727
C       103.380       147.280       151.630
H       102.607       146.509       151.543
H       102.979       148.059       152.287
C       104.680       146.680       152.230
H       104.978       145.808       151.638
H       104.477       146.332       153.248
C       105.830       147.690       152.260
H       106.085       148.051       151.258
H       105.586       148.572       152.862
H       106.743       147.260       152.684
C        99.610       148.570       152.610
C        99.000       147.430       153.170
H        98.350       146.740       152.770
C        99.360       147.430       154.500
C       100.250       148.380       154.910
S       100.440       149.710       153.710
C        98.730       146.360       155.430
H        99.362       146.260       156.319
H        98.742       145.398       154.907
C        97.310       146.660       155.870
H        96.647       145.919       155.412
H        97.028       147.640       155.470
C        97.090       146.660       157.320
H        96.021       146.738       157.543
H        97.579       147.526       157.779
C        97.650       145.360       157.960
H        98.693       145.236       157.650
H        97.086       144.505       157.571
C        97.580       145.350       159.490
H        97.917       144.382       159.875
H        96.544       145.482       159.819
C        98.440       146.450       160.010
H        99.485       146.332       159.705
H        98.113       147.431       159.650
H        98.432       146.495       161.104
C       101.110       147.790       155.820
C       101.070       148.450       157.060
H       100.600       149.370       157.250
C       101.880       147.730       157.980
C       102.410       146.600       157.310
S       102.130       146.370       155.580
C       102.150       148.030       159.420
H       103.049       148.655       159.430
H       102.400       147.070       159.882
C       101.170       148.710       160.400
H       100.189       148.226       160.366
H       101.021       149.761       160.132
C       101.790       148.590       161.820
H       101.004       148.599       162.583
H       102.447       149.442       162.024
C       102.580       147.270       161.870
H       103.180       147.165       160.960
H       101.884       146.425       161.898
C       103.480       147.240       163.090
H       104.381       147.841       162.929
H       103.816       146.221       163.306
C       102.650       147.790       164.210
H       102.316       148.813       164.009
H       101.750       147.191       164.386
H       103.203       147.817       165.155
C       102.880       145.610       158.170
C       103.980       145.100       157.540
H       104.440       145.630       156.730
C       104.250       143.780       157.820
C       103.430       143.480       158.950
S       102.110       144.560       159.430
C       105.230       142.800       157.220
H       104.911       141.761       157.352
H       106.226       142.882       157.667
C       105.240       143.210       155.720
H       106.097       142.749       155.217
H       105.358       144.295       155.635
C       103.940       142.770       155.050
H       103.087       143.300       155.487
H       103.769       141.701       155.215
C       104.060       143.070       153.590
H       104.067       144.148       153.399
H       103.219       142.659       153.023
C       105.360       142.430       153.190
H       105.253       141.340       153.184
H       106.136       142.673       153.923
C       105.790       142.910       151.810
H       105.050       142.665       151.041
H       105.932       143.995       151.779
H       106.736       142.458       151.495
C       103.590       142.240       159.440
C       102.460       141.430       159.230
H       101.620       141.590       158.550
C       102.540       140.320       160.020
C       103.780       140.320       160.730
S       104.870       141.760       160.580
C       101.400       139.300       160.160
H       101.498       138.753       161.104
H       101.455       138.560       159.354
C       100.100       140.040       160.110
H        99.944       140.495       159.126
H       100.084       140.856       160.840
C        99.030       139.030       160.410
H        98.871       138.895       161.485
H        99.265       138.039       160.008
C        97.850       139.660       159.730
H        96.935       139.255       160.174
H        97.861       139.371       158.674
C        97.770       141.210       159.800
H        98.506       141.648       159.117
H        98.024       141.546       160.811
C        96.370       141.680       159.430
H        96.089       141.375       158.416
H        95.609       141.274       160.105
H        96.280       142.771       159.470
C       104.110       139.090       161.230
C       104.760       138.250       160.290
H       105.020       138.610       159.250
C       104.750       136.910       160.790
C       104.200       136.930       162.020
S       103.630       138.430       162.780
C       105.310       135.730       159.940
H       104.514       135.284       159.334
H       105.699       134.940       160.591
C       106.410       136.300       159.060
H       107.293       136.563       159.651
H       106.080       137.215       158.556
C       106.740       135.200       158.040
H       106.956       134.240       158.521
H       107.614       135.449       157.430
C       105.440       135.150       157.200
H       105.419       136.011       156.524
H       104.579       135.238       157.870
C       105.320       133.870       156.390
H       104.354       133.815       155.877
H       105.382       132.987       157.034
C       106.450       133.930       155.430
H       106.389       134.809       154.779
H       107.418       133.979       155.939
H       106.479       133.053       154.776
H       104.093       135.998       162.585
