  277
Data form file: SCF_n_PBE0_6-31G#_CHelpG_P3HT_1825_R11/SCF_n_PBE0_6-31G#_CHelpG_P3HT_1825_R11.log  geo_count:  1
H        46.399       242.007        34.752
C        46.830       241.070        35.120
C        48.130       241.060        35.660
H        48.770       241.950        35.730
C        48.500       239.800        36.080
C        47.410       239.010        35.870
S        45.930       239.530        35.060
C        49.920       239.550        36.590
H        50.599       239.288        35.772
H        49.948       238.721        37.305
C        50.340       240.880        37.260
H        49.871       240.989        38.243
H        50.024       241.739        36.658
C        51.870       240.820        37.380
H        52.189       240.015        38.050
H        52.279       241.753        37.783
C        52.370       240.570        35.920
H        52.083       241.411        35.280
H        51.894       239.672        35.513
C        53.920       240.400        35.910
H        54.329       240.797        34.975
H        54.175       239.336        35.956
C        54.570       241.150        37.130
H        54.356       242.224        37.113
H        54.203       240.769        38.089
H        55.660       241.044        37.143
C        47.640       237.680        36.210
C        47.150       236.840        35.180
H        46.980       237.220        34.170
C        46.990       235.510        35.600
C        47.200       235.440        37.000
S        48.060       236.840        37.750
C        46.520       234.340        34.740
H        45.808       234.660        33.972
H        46.013       233.574        35.337
C        47.810       233.830        34.140
H        48.225       232.997        34.717
H        48.581       234.607        34.114
C        47.400       233.400        32.750
H        46.313       233.276        32.700
H        47.848       232.430        32.509
C        47.850       234.450        31.720
H        48.942       234.522        31.702
H        47.467       235.439        31.992
C        47.320       234.030        30.350
H        47.639       234.707        29.550
H        46.226       233.994        30.315
C        47.960       232.590        30.190
H        49.054       232.622        30.220
H        47.641       231.909        30.985
H        47.682       232.121        29.240
C        46.670       234.350        37.670
C        47.620       233.470        38.090
H        48.670       233.550        37.990
C        47.020       232.420        38.780
C        45.650       232.680        38.880
S        44.960       234.120        38.160
C        47.820       231.140        39.300
H        47.323       230.730        40.185
H        48.829       231.436        39.605
C        47.860       230.150        38.200
H        48.268       230.582        37.280
H        46.861       229.772        37.958
C        48.780       228.980        38.710
H        49.778       229.351        38.966
H        48.906       228.216        37.936
C        48.060       228.380        39.980
H        47.665       229.197        40.593
H        48.790       227.836        40.588
C        46.910       227.430        39.570
H        47.261       226.751        38.786
H        46.086       228.016        39.151
C        46.400       226.610        40.770
H        47.189       225.990        41.208
H        46.018       227.250        41.572
H        45.585       225.934        40.489
C        44.990       231.640        39.520
C        44.960       231.760        40.930
H        45.450       232.610        41.460
C        44.190       230.740        41.460
C        43.650       230.030        40.400
S        44.030       230.410        38.670
C        43.970       230.500        42.940
H        44.730       229.816        43.332
H        42.996       230.028        43.109
C        44.040       231.840        43.670
H        43.339       232.527        43.185
H        45.048       232.246        43.536
C        43.730       231.830        45.170
H        44.358       231.100        45.692
H        42.689       231.543        45.350
C        44.000       233.250        45.690
H        43.795       233.320        46.763
H        43.351       233.979        45.194
C        45.460       233.520        45.390
H        45.751       233.100        44.422
H        46.111       233.059        46.140
C        45.580       235.010        45.400
H        44.937       235.478        44.647
H        45.298       235.438        46.368
H        46.603       235.340        45.193
C        42.630       229.210        40.720
C        43.070       227.930        40.450
H        43.980       227.540        40.000
C        41.980       227.130        40.660
C        40.860       227.830        41.070
S        41.010       229.550        41.350
C        41.950       225.620        40.530
H        42.643       225.276        39.755
H        40.955       225.267        40.240
C        42.340       225.110        41.880
H        41.664       225.430        42.680
H        43.343       225.419        42.191
C        42.240       223.630        41.570
H        42.631       223.082        42.434
H        42.902       223.422        40.723
C        40.900       223.090        41.250
H        40.293       223.832        40.721
H        40.353       222.830        42.162
C        41.120       221.880        40.400
H        40.227       221.250        40.475
H        41.960       221.320        40.823
C        41.420       222.070        38.870
H        40.605       222.588        38.354
H        42.328       222.658        38.700
H        41.562       221.113        38.358
C        39.670       227.210        41.320
C        38.970       228.090        42.150
H        39.390       228.670        42.920
C        37.580       228.060        41.750
C        37.420       226.970        40.880
S        38.840       225.990        40.310
C        36.520       229.080        42.110
H        35.897       228.739        42.943
H        35.845       229.276        41.270
C        37.320       230.340        42.490
H        38.238       230.086        43.030
H        36.740       231.005        43.138
C        37.650       231.040        41.110
H        38.043       230.290        40.416
H        38.435       231.786        41.269
C        36.420       231.710        40.500
H        35.614       230.973        40.424
H        36.661       232.036        39.483
C        35.930       232.900        41.300
H        35.606       232.596        42.301
H        35.068       233.372        40.817
C        37.110       233.870        41.380
H        37.978       233.420        41.872
H        37.441       234.196        40.388
H        36.860       234.775        41.944
C        36.140       226.870        40.430
C        35.300       225.860        40.850
H        35.550       225.200        41.680
C        34.040       225.990        40.230
C        34.060       227.100        39.440
S        35.560       227.990        39.190
C        32.930       225.030        40.540
H        32.365       224.840        39.622
H        32.247       225.503        41.254
C        33.370       223.680        41.120
H        33.727       223.830        42.144
H        34.212       223.297        40.535
C        32.260       222.670        41.120
H        32.506       221.830        41.778
H        32.113       222.262        40.115
C        30.930       223.350        41.610
H        30.778       224.304        41.094
H        30.987       223.569        42.681
C        29.800       222.380        41.310
H        28.845       222.828        41.605
H        29.933       221.469        41.903
C        29.730       221.990        39.790
H        29.570       222.863        39.149
H        30.652       221.510        39.447
H        28.913       221.291        39.583
C        32.910       227.680        38.950
C        32.190       228.370        39.930
H        32.470       228.370        41.010
C        31.120       229.080        39.370
C        31.230       228.980        37.960
S        32.410       227.880        37.260
C        30.190       229.980        40.200
H        30.081       229.531        41.193
H        29.203       229.976        39.726
C        30.630       231.410        40.370
H        29.908       231.935        41.003
H        30.630       231.904        39.393
C        32.040       231.560        41.000
H        32.269       232.620        41.150
H        32.796       231.155        40.319
C        32.100       230.810        42.360
H        31.761       229.781        42.203
H        31.399       231.289        43.051
C        33.500       230.770        43.030
H        33.882       231.789        43.156
H        34.206       230.235        42.386
C        33.400       230.070        44.400
H        32.714       230.590        45.077
H        33.037       229.041        44.309
H        34.369       230.021        44.907
C        30.310       229.840        37.280
C        29.300       229.060        36.750
H        29.350       227.970        36.780
C        28.330       229.940        36.260
C        28.720       231.240        36.650
S        30.410       231.610        37.050
C        27.150       229.570        35.330
H        26.926       230.419        34.676
H        26.258       229.380        35.937
C        27.460       228.340        34.480
H        26.541       228.021        33.977
H        27.775       227.527        35.142
C        28.570       228.540        33.390
H        29.092       229.490        33.543
H        28.125       228.575        32.390
C        29.520       227.360        33.530
H        28.988       226.438        33.271
H        29.833       227.273        34.576
C        30.750       227.490        32.650
H        30.476       227.518        31.590
H        31.419       226.633        32.778
C        31.400       228.760        33.080
H        30.740       229.624        32.948
H        31.685       228.738        34.137
H        32.312       228.967        32.510
C        27.630       231.860        37.340
C        28.020       233.150        37.840
H        28.790       233.790        37.350
C        27.140       233.520        38.920
C        26.300       232.480        39.150
S        26.370       230.960        38.200
C        27.370       234.770        39.730
H        27.093       234.602        40.776
H        26.740       235.585        39.359
C        28.830       235.150        39.630
H        29.138       235.384        38.606
H        29.500       234.356        39.976
C        28.830       236.350        40.530
H        28.263       237.152        40.046
H        29.860       236.705        40.642
C        28.260       236.100        41.870
H        28.816       235.309        42.385
H        27.221       235.763        41.791
C        28.320       237.410        42.710
H        27.768       237.343        43.653
H        27.918       238.280        42.181
C        29.840       237.450        42.890
H        30.215       236.562        43.409
H        30.365       237.503        41.931
H        30.161       238.318        43.475
C        25.480       232.540        40.230
C        25.800       231.440        41.060
H        26.660       230.750        41.110
C        24.630       231.230        41.820
C        23.740       232.260        41.540
S        24.000       233.510        40.320
C        24.310       230.030        42.700
H        23.240       230.012        42.931
H        24.846       230.112        43.651
C        24.710       228.720        41.990
H        24.577       227.857        42.650
H        25.765       228.736        41.698
C        23.800       228.640        40.780
H        23.881       229.550        40.177
H        22.754       228.551        41.091
C        24.210       227.400        39.930
H        24.010       226.462        40.458
H        25.276       227.412        39.681
C        23.300       227.510        38.580
H        22.250       227.326        38.829
H        23.607       226.739        37.866
C        23.490       228.900        38.000
H        23.183       229.683        38.702
H        24.536       229.097        37.742
H        22.905       229.047        37.086
H        22.799       232.335        42.095
