  352
Data form file: SCF_n_PBE0_6-31G#_CHelpG_P3HT_902_R14/SCF_n_PBE0_6-31G#_CHelpG_P3HT_902_R14.log  geo_count:  1
H       117.723        91.076       106.093
C       117.910        90.590       105.130
C       118.670        91.240       104.160
H       119.100        92.250       104.230
C       118.610        90.480       103.030
C       117.770        89.340       103.160
S       117.260        88.980       104.780
C       119.560        90.800       101.830
H       119.652        91.885       101.719
H       119.121        90.411       100.905
C       120.960        90.180       102.040
H       120.872        89.089       102.064
H       121.352        90.496       103.012
C       121.910        90.590       100.950
H       121.575        90.153       100.004
H       122.900        90.177       101.168
C       122.040        92.100       100.770
H       122.228        92.581       101.736
H       121.107        92.516       100.376
C       123.210        92.410        99.790
H       123.127        91.777        98.900
H       124.167        92.179       100.269
C       123.180        93.920        99.370
H       122.244        94.188        98.869
H       123.280        94.588       100.232
H       123.992        94.170        98.679
C       117.260        88.860       102.000
C       117.390        87.450       102.000
H       117.900        86.850       102.740
C       116.680        86.910       100.920
C       116.200        88.010       100.160
S       116.380        89.690       100.710
C       116.470        85.380       100.790
H       117.389        84.845       101.053
H       116.227        85.115        99.756
C       115.330        84.990       101.730
H       114.449        85.626       101.595
H       115.618        85.073       102.783
C       115.060        83.540       101.320
H       114.183        83.177       101.866
H       115.914        82.924       101.621
C       114.820        83.350        99.820
H       115.699        83.685        99.260
H       113.978        83.972        99.499
C       114.540        81.910        99.530
H       115.436        81.290        99.639
H       114.181        81.763        98.506
C       113.480        81.540       100.550
H       113.834        81.676       101.577
H       112.577        82.149       100.442
H       113.170        80.494       100.458
C       115.430        87.570        99.080
C       116.170        87.210        97.930
H       117.230        87.520        97.730
C       115.390        86.450        96.980
C       114.120        86.380        97.500
S       113.700        87.240        99.070
C       115.870        85.870        95.640
H       115.930        86.680        94.905
H       115.125        85.154        95.278
C       117.220        85.180        95.730
H       117.052        84.205        96.200
H       117.840        85.774        96.409
C       118.030        84.940        94.480
H       118.136        85.890        93.946
H       117.469        84.264        93.826
C       119.350        84.380        94.730
H       119.934        85.014        95.405
H       119.931        84.292        93.806
C       119.110        83.030        95.340
H       118.388        82.493        94.716
H       118.654        83.173        96.325
C       120.350        82.120        95.520
H       120.841        81.902        94.566
H       121.105        82.579        96.167
H       120.090        81.156        95.970
C       113.280        85.890        96.470
C       112.740        86.990        95.770
H       112.640        88.000        96.050
C       112.320        86.550        94.540
C       112.470        85.200        94.650
S       112.940        84.200        96.010
C       111.700        87.320        93.360
H       111.976        86.785        92.445
H       112.182        88.303        93.327
C       110.240        87.530        93.340
H       109.966        88.295        94.074
H       109.729        86.608        93.637
C       109.790        87.940        92.000
H       110.006        87.182        91.240
H       110.275        88.862        91.663
C       108.300        88.130        92.190
H       108.121        88.960        92.881
H       107.870        87.232        92.645
C       107.610        88.410        90.870
H       107.431        87.471        90.336
H       108.257        89.021        90.232
C       106.330        89.110        91.130
H       105.655        88.513        91.752
H       106.481        90.062        91.649
H       105.791        89.336        90.204
C       112.620        84.720        93.360
C       111.660        83.750        93.090
H       111.070        83.290        93.900
C       111.850        83.200        91.780
C       112.820        84.020        91.140
S       113.850        85.070        92.150
C       111.000        82.080        91.190
H       111.520        81.572        90.371
H       110.062        82.465        90.777
C       110.750        81.140        92.360
H       110.150        81.643        93.126
H       111.699        80.864        92.831
C       110.050        79.940        91.850
H       110.393        79.737        90.830
H       108.977        80.152        91.796
C       110.250        78.690        92.680
H       111.285        78.629        93.032
H       110.069        77.797        92.073
C       109.310        78.750        93.820
H       108.287        78.923        93.469
H       109.562        79.583        94.485
C       109.390        77.440        94.570
H       109.123        76.588        93.936
H       110.398        77.247        94.953
H       108.714        77.419        95.431
C       112.480        84.280        89.880
C       111.700        85.430        89.890
H       111.000        85.820        90.610
C       112.010        86.200        88.780
C       112.730        85.360        87.870
S       113.250        83.730        88.380
C       111.610        87.720        88.730
H       110.681        87.870        89.289
H       111.418        88.011        87.692
C       112.720        88.590        89.320
H       113.589        88.628        88.655
H       113.068        88.191        90.279
C       112.100        90.000        89.500
H       112.805        90.679        89.992
H       111.207        89.958        90.132
C       111.770        90.460        88.100
H       111.257        89.664        87.551
H       112.689        90.688        87.550
C       110.890        91.690        88.180
H       110.380        91.881        87.230
H       111.474        92.587        88.412
C       109.880        91.380        89.300
H       109.281        90.491        89.077
H       110.375        91.197        90.259
H       109.177        92.205        89.458
C       113.040        86.090        86.690
C       114.160        86.880        86.740
H       114.890        86.950        87.530
C       114.370        87.550        85.520
C       113.550        86.990        84.570
S       112.200        85.970        85.120
C       115.460        88.570        85.360
H       115.974        88.443        84.401
H       116.217        88.457        86.143
C       114.810        89.940        85.440
H       114.083        89.967        86.258
H       114.265        90.155        84.515
C       115.900        91.020        85.670
H       116.838        90.713        85.196
H       116.101        91.127        86.741
C       115.410        92.310        85.090
H       115.404        92.261        83.996
H       116.076        93.133        85.369
C       114.010        92.570        85.610
H       114.033        92.986        86.622
H       113.425        91.646        85.656
C       113.350        93.590        84.610
H       113.908        94.531        84.556
H       113.301        93.192        83.591
H       112.326        93.845        84.901
C       113.940        87.270        83.270
C       113.490        88.470        82.770
H       112.870        89.230        83.260
C       114.050        88.630        81.460
C       114.510        87.420        80.960
S       114.900        86.180        82.170
C       113.940        89.920        80.650
H       113.064        90.518        80.922
H       113.873        89.739        79.572
C       115.280        90.620        81.050
H       116.130        90.195        80.506
H       115.490        90.499        82.118
C       115.060        92.120        80.680
H       114.014        92.402        80.839
H       115.280        92.287        79.620
C       115.980        92.930        81.560
H       117.019        92.623        81.398
H       115.751        92.742        82.614
C       115.820        94.390        81.250
H       114.784        94.705        81.414
H       116.048        94.585        80.197
C       116.750        95.160        82.140
H       116.532        94.996        83.201
H       117.796        94.876        81.984
H       116.685        96.239        81.966
C       114.450        87.310        79.580
C       115.600        86.710        79.110
H       116.380        86.330        79.720
C       115.480        86.610        77.710
C       114.240        86.990        77.240
S       113.120        87.660        78.430
C       116.600        86.150        76.840
H       117.560        86.412        77.297
H       116.554        86.658        75.871
C       116.540        84.630        76.620
H       115.634        84.380        76.058
H       116.473        84.126        77.590
C       117.770        84.110        75.860
H       117.696        83.027        75.714
H       118.681        84.300        76.437
C       117.860        84.830        74.470
H       118.841        84.601        74.041
H       117.826        85.909        74.653
C       116.830        84.480        73.510
H       115.840        84.501        73.977
H       116.981        83.464        73.130
C       116.870        85.480        72.340
H       116.696        86.508        72.673
H       117.837        85.472        71.827
H       116.109        85.258        71.585
C       114.030        87.060        75.880
C       114.020        88.300        75.390
H       114.080        89.130        76.050
C       113.890        88.340        74.030
C       113.820        87.070        73.500
S       113.820        85.770        74.720
C       113.800        89.640        73.240
H       114.143        89.433        72.221
H       114.501        90.351        73.691
C       112.430        90.350        73.130
H       111.958        90.415        74.116
H       111.757        89.775        72.485
C       112.650        91.760        72.550
H       112.902        91.697        71.486
H       113.489        92.250        73.055
C       111.350        92.600        72.740
H       110.847        92.382        73.688
H       110.616        92.417        71.949
C       111.940        94.010        72.690
H       112.645        94.146        73.516
H       111.143        94.750        72.817
C       112.660        94.250        71.350
H       113.481        93.543        71.193
H       111.983        94.145        70.496
H       113.092        95.255        71.290
C       113.780        86.830        72.140
C       113.270        85.520        72.000
H       113.030        84.800        72.760
C       113.130        85.170        70.660
C       113.410        86.280        69.850
S       113.910        87.800        70.620
C       112.710        83.750        70.180
H       113.138        83.543        69.194
H       111.622        83.694        70.073
C       113.200        82.790        71.190
H       112.494        81.956        71.265
H       113.234        83.283        72.167
C       114.630        82.190        70.900
H       115.321        83.012        70.685
H       114.574        81.560        70.006
C       115.190        81.350        72.080
H       114.671        80.389        72.159
H       115.050        81.870        73.034
C       116.690        81.150        71.770
H       117.269        82.024        72.084
H       116.850        81.033        70.693
C       117.110        79.920        72.520
H       116.963        80.028        73.600
H       116.543        79.036        72.209
H       118.169        79.687        72.366
C       113.060        86.110        68.510
C       112.090        87.070        68.170
H       111.570        87.680        68.880
C       111.950        87.200        66.740
C       112.780        86.190        66.160
S       113.910        85.280        67.180
C       111.080        88.260        66.070
H       110.063        87.889        65.906
H       111.480        88.536        65.089
C       111.080        89.460        67.020
H       111.170        89.114        68.055
H       110.130        89.998        66.938
C       112.250        90.420        66.690
H       112.024        91.013        65.798
H       113.166        89.857        66.484
C       112.460        91.370        67.940
H       112.539        90.729        68.824
H       111.552        91.973        68.044
C       113.640        92.300        67.930
H       113.905        92.544        68.964
H       113.349        93.234        67.437
C       114.880        91.750        67.230
H       115.241        90.829        67.699
H       114.687        91.516        66.178
H       115.711        92.462        67.249
C       112.900        86.310        64.740
C       114.240        86.170        64.290
H       115.170        86.350        64.830
C       114.290        85.900        62.930
C       112.950        85.850        62.490
S       111.570        86.140        63.590
C       115.570        85.800        62.060
H       115.848        86.794        61.694
H       115.376        85.168        61.187
C       116.780        85.190        62.890
H       116.486        84.252        63.373
H       117.093        85.878        63.682
C       117.920        84.960        61.860
H       118.116        85.886        61.310
H       117.611        84.208        61.126
C       119.150        84.510        62.590
H       119.652        85.369        63.049
H       119.859        84.056        61.890
C       118.780        83.480        63.690
H       117.795        83.668        64.130
H       119.496        83.471        64.518
C       118.820        82.170        62.850
H       118.104        82.192        62.022
H       119.807        81.995        62.410
H       118.580        81.288        63.453
C       112.810        85.420        61.150
C       111.970        84.290        61.330
H       111.430        83.870        62.230
C       111.840        83.750        60.060
C       112.520        84.480        59.090
S       113.480        85.860        59.570
C       111.180        82.390        59.940
H       111.923        81.610        60.133
H       110.818        82.253        58.916
C       109.990        82.200        60.920
H       109.146        82.855        60.681
H       110.268        82.415        61.957
C       109.670        80.720        60.690
H       108.704        80.497        61.154
H       110.427        80.117        61.202
C       109.620        80.310        59.240
H       110.375        80.816        58.630
H       108.656        80.532        58.770
C       109.870        78.880        59.410
H       109.782        78.373        58.443
H       109.109        78.449        60.069
C       111.240        78.600        59.990
H       112.042        78.985        59.352
H       111.370        79.060        60.975
H       111.421        77.527        60.115
H       112.450        84.187        58.037
