  377
Data form file: SCF_n_PBE0_6-31G#_CHelpG_P3HT_1358_R15/SCF_n_PBE0_6-31G#_CHelpG_P3HT_1358_R15.log  geo_count:  1
H        27.704       175.915        65.726
C        28.410       176.380        65.030
C        27.950       177.000        63.910
H        26.920       177.270        63.780
C        28.950       177.070        62.910
C        30.140       176.690        63.550
S        30.170       176.380        65.270
C        28.710       177.450        61.450
H        29.508       177.028        60.830
H        28.756       178.539        61.347
C        27.340       176.950        60.920
H        27.065       177.530        60.033
H        26.573       177.131        61.681
C        27.370       175.470        60.570
H        26.346       175.095        60.473
H        27.843       174.910        61.384
C        28.120       175.240        59.290
H        29.022       175.860        59.301
H        27.497       175.582        58.457
C        28.530       173.810        59.020
H        27.663       173.175        58.810
H        29.041       173.368        59.882
C        29.450       173.910        57.820
H        28.945       174.344        56.951
H        30.324       174.537        58.024
H        29.828       172.930        57.510
C        31.240       176.390        62.780
C        32.430       176.870        63.310
H        32.530       177.700        64.080
C        33.490       176.220        62.630
C        32.950       175.180        61.860
S        31.200       175.120        61.530
C        34.980       176.550        62.810
H        35.315       177.205        61.999
H        35.573       175.631        62.753
C        35.220       177.240        64.170
H        34.730       176.690        64.980
H        34.800       178.251        64.175
C        36.710       177.260        64.340
H        37.187       177.454        63.374
H        37.054       176.277        64.679
C        37.150       178.320        65.340
H        38.012       177.951        65.907
H        36.343       178.502        66.057
C        37.520       179.630        64.650
H        38.199       180.227        65.268
H        36.634       180.247        64.467
C        38.180       179.210        63.350
H        39.072       178.599        63.522
H        37.507       178.619        62.721
H        38.496       180.072        62.753
C        33.920       174.260        61.370
C        33.990       173.240        62.260
H        33.380       173.180        63.120
C        34.990       172.430        61.780
C        35.470       172.830        60.530
S        34.810       174.260        59.780
C        35.420       171.220        62.540
H        36.296       171.457        63.152
H        35.716       170.428        61.844
C        34.290       170.700        63.450
H        33.388       170.518        62.857
H        34.033       171.459        64.196
C        34.750       169.460        64.100
H        33.981       169.034        64.753
H        35.633       169.632        64.724
C        35.080       168.490        62.940
H        35.882       167.816        63.258
H        35.455       169.068        62.089
C        33.880       167.670        62.500
H        34.199       166.834        61.868
H        33.197       168.282        61.902
C        33.170       167.150        63.750
H        33.824       166.519        64.361
H        32.824       167.965        64.394
H        32.290       166.547        63.501
C        36.260       171.850        59.970
C        37.510       172.430        59.690
H        37.810       173.480        59.890
C        38.260       171.470        59.080
C        37.470       170.360        58.790
S        35.810       170.240        59.310
C        39.720       171.700        58.680
H        40.270       170.755        58.747
H        40.185       172.399        59.383
C        39.840       172.260        57.250
H        39.278       173.195        57.160
H        39.410       171.557        56.529
C        41.310       172.490        56.960
H        41.787       173.096        57.737
H        41.459       173.017        56.012
C        41.920       171.060        56.910
H        41.343       170.434        56.221
H        41.857       170.595        57.899
C        43.360       171.150        56.460
H        43.431       171.685        55.507
H        43.775       170.149        56.301
C        44.190       171.900        57.550
H        43.818       172.915        57.723
H        44.161       171.383        58.515
H        45.245       171.992        57.271
C        38.250       169.250        58.510
C        37.500       168.430        57.670
H        36.760       168.830        56.940
C        37.780       167.060        57.910
C        38.860       167.010        58.770
S        39.510       168.520        59.480
C        36.920       165.950        57.410
H        36.995       165.072        58.060
H        37.232       165.632        56.410
C        35.480       166.470        57.380
H        34.827       165.707        56.943
H        35.425       167.352        56.734
C        35.000       166.820        58.760
H        35.653       167.590        59.184
H        35.079       165.937        59.403
C        33.570       167.320        58.780
H        33.455       168.127        58.049
H        33.343       167.738        59.766
C        32.550       166.200        58.460
H        32.795       165.318        59.061
H        32.653       165.920        57.406
C        31.100       166.600        58.730
H        30.937       166.866        59.780
H        30.795       167.465        58.132
H        30.401       165.791        58.496
C        39.330       165.710        58.940
C        39.440       165.470        60.320
H        38.790       165.860        61.170
C        40.450       164.510        60.400
C        40.720       164.060        59.090
S        40.160       164.870        57.670
C        41.170       164.180        61.710
H        41.505       163.138        61.690
H        40.471       164.283        62.547
C        42.380       165.100        61.940
H        43.240       164.674        61.413
H        42.615       165.097        63.010
C        42.200       166.530        61.490
H        42.011       167.227        62.313
H        41.379       166.665        60.779
C        43.600       166.730        60.840
H        43.814       165.855        60.218
H        44.346       166.755        61.641
C        43.740       167.960        60.010
H        44.788       168.117        59.736
H        43.422       168.841        60.577
C        42.890       167.820        58.750
H        43.194       166.961        58.143
H        41.829       167.683        58.984
H        42.961       168.703        58.107
C        41.890       163.380        59.080
C        41.740       162.050        59.430
H        40.890       161.460        59.630
C        42.970       161.590        59.780
C        43.960       162.580        59.570
S        43.460       164.140        58.910
C        42.970       160.330        60.590
H        41.984       160.207        61.050
H        43.701       160.431        61.399
C        43.300       159.030        59.800
H        44.304       159.046        59.364
H        42.603       158.851        58.975
C        43.160       157.980        60.940
H        43.297       156.975        60.527
H        42.148       158.027        61.354
C        44.180       158.230        62.040
H        44.028       157.488        62.831
H        43.989       159.217        62.475
C        45.620       158.170        61.590
H        46.237       158.018        62.482
H        45.875       159.149        61.172
C        46.030       157.120        60.570
H        45.843       156.103        60.930
H        45.483       157.228        59.628
H        47.096       157.179        60.326
C        45.190       162.340        60.100
C        45.240       162.600        61.460
H        44.390       162.920        62.060
C        46.550       162.440        62.000
C        47.360       162.150        60.920
S        46.730       162.080        59.290
C        46.920       162.560        63.500
H        48.001       162.712        63.592
H        46.674       161.621        64.007
C        46.180       163.730        64.210
H        46.426       163.722        65.277
H        45.098       163.581        64.126
C        46.570       165.040        63.600
H        46.556       164.949        62.509
H        47.596       165.284        63.894
C        45.650       166.200        64.010
H        45.593       166.333        65.095
H        44.622       166.073        63.654
C        46.380       167.410        63.300
H        45.819       168.334        63.473
H        46.409       167.242        62.218
C        47.810       167.540        63.860
H        47.813       167.722        64.940
H        48.401       166.634        63.690
H        48.358       168.367        63.397
C        48.660       161.930        61.350
C        49.090       160.680        60.830
H        48.520       160.030        60.200
C        50.440       160.550        61.100
C        50.870       161.610        61.860
S        49.830       162.990        62.130
C        51.320       159.380        60.650
H        52.176       159.298        61.327
H        51.712       159.594        59.650
C        50.580       158.050        60.620
H        49.787       158.080        59.866
H        50.101       157.866        61.587
C        51.560       156.910        60.300
H        52.300       156.789        61.098
H        52.119       157.115        59.381
C        50.690       155.690        60.160
H        50.076       155.520        61.051
H        51.281       154.780        60.014
C        49.860       156.020        58.960
H        50.525       156.296        58.135
H        49.238       156.892        59.189
C        48.910       154.870        58.450
H        49.469       153.972        58.166
H        48.188       154.565        59.215
H        48.332       155.175        57.572
C        52.130       161.480        62.360
C        53.060       162.350        61.750
H        52.840       163.120        61.040
C        54.360       162.080        62.210
C        54.320       160.920        63.000
S        52.750       160.350        63.610
C        55.690       162.760        61.700
H        55.958       162.383        60.707
H        56.524       162.523        62.369
C        55.410       164.250        61.670
H        55.099       164.612        62.656
H        54.602       164.484        60.969
C        56.750       164.980        61.220
H        56.858       164.900        60.133
H        57.608       164.473        61.673
C        56.720       166.440        61.640
H        56.419       166.458        62.693
H        55.926       166.918        61.057
C        57.940       167.320        61.520
H        58.657       167.093        62.316
H        57.666       168.374        61.633
C        58.540       167.070        60.180
H        58.835       166.023        60.051
H        57.843       167.305        59.368
H        59.437       167.675        60.013
C        55.450       160.130        63.140
C        55.690       159.850        64.500
H        55.180       160.470        65.220
C        56.600       158.800        64.670
C        56.900       158.280        63.390
S        56.310       159.210        61.990
C        57.060       158.420        66.100
H        57.997       157.859        66.024
H        56.309       157.755        66.539
C        57.280       159.610        67.060
H        57.104       159.319        68.101
H        56.593       160.433        66.837
C        58.760       160.040        66.840
H        58.900       160.219        65.769
H        59.398       159.196        67.121
C        59.230       161.260        67.590
H        58.520       162.090        67.513
H        60.189       161.631        67.213
C        59.350       160.750        69.040
H        58.692       159.889        69.200
H        59.038       161.526        69.747
C        60.800       160.370        69.260
H        61.128       159.586        68.569
H        61.474       161.221        69.116
H        60.976       159.994        70.273
C        57.850       157.200        63.410
C        57.550       156.340        62.430
H        56.610       156.300        61.900
C        58.550       155.330        62.240
C        59.590       155.580        63.160
S        59.270       156.830        64.390
C        58.460       154.330        61.070
H        57.803       153.514        61.389
H        59.461       153.913        60.920
C        57.960       154.820        59.720
H        58.308       155.838        59.516
H        56.866       154.848        59.691
C        58.510       153.840        58.710
H        58.277       152.811        59.004
H        59.601       153.917        58.652
C        57.880       154.160        57.350
H        58.136       155.169        57.011
H        56.787       154.109        57.386
C        58.470       153.090        56.450
H        59.562       153.105        56.526
H        58.215       153.304        55.407
C        57.950       151.710        56.830
H        58.204       151.446        57.862
H        56.860       151.645        56.745
H        58.366       150.925        56.190
C        60.760       154.790        63.020
C        61.840       155.610        63.430
H        61.880       156.480        64.060
C        63.090       155.040        63.020
C        62.840       153.830        62.440
S        61.210       153.240        62.330
C        64.370       155.830        63.100
H        64.172       156.895        62.941
H        65.064       155.513        62.315
C        64.990       155.610        64.470
H        65.109       154.539        64.666
H        64.336       156.010        65.252
C        66.360       156.310        64.520
H        66.231       157.397        64.556
H        66.936       156.083        63.617
C        67.110       155.820        65.770
H        67.255       154.737        65.699
H        66.495       156.013        66.655
C        68.490       156.500        65.960
H        69.064       155.978        66.733
H        68.358       157.532        66.302
C        69.200       156.460        64.650
H        69.351       155.435        64.296
H        68.645       156.987        63.867
H        70.190       156.925        64.705
C        63.880       153.290        61.720
C        64.840       152.670        62.560
H        64.800       152.660        63.620
C        65.900       152.200        61.760
C        65.450       152.120        60.440
S        63.960       152.890        60.040
C        67.290       151.770        62.330
H        67.752       151.013        61.688
H        67.178       151.325        63.324
C        68.150       153.040        62.390
H        67.711       153.757        63.091
H        68.175       153.523        61.408
C        69.560       152.670        62.830
H        69.544       152.191        63.815
H        70.183       153.566        62.923
C        70.110       151.740        61.790
H        69.697       152.025        60.817
H        69.759       150.726        62.010
C        71.610       151.710        61.680
H        71.929       151.047        60.869
H        72.062       151.332        62.603
C        72.110       153.180        61.400
H        71.694       153.585        60.472
H        71.826       153.869        62.202
H        73.200       153.232        61.308
C        66.400       151.410        59.710
C        67.100       152.320        58.920
H        67.030       153.410        58.940
C        68.020       151.620        58.100
C        67.850       150.230        58.300
S        66.590       149.660        59.370
C        69.120       152.340        57.250
H        68.702       153.260        56.829
H        69.409       151.693        56.415
C        70.410       152.700        58.090
H        70.598       151.979        58.892
H        70.337       153.686        58.562
C        71.500       152.650        56.970
H        72.467       152.366        57.397
H        71.622       153.640        56.518
C        71.060       151.620        55.900
H        70.026       151.842        55.616
H        71.067       150.626        56.359
C        71.900       151.600        54.690
H        72.118       152.620        54.357
H        71.377       151.102        53.867
C        73.190       150.870        55.000
H        73.752       151.355        55.805
H        73.011       149.837        55.316
H        73.855       150.825        54.131
H        68.506       149.520        57.785
