  427
Data form file: SCF_n_PBE0_6-31G#_CHelpG_P3HT_75_R17/SCF_n_PBE0_6-31G#_CHelpG_P3HT_75_R17.log  geo_count:  1
H        87.274        73.501        65.862
C        86.400        74.000        65.430
C        86.560        74.880        64.350
H        87.510        75.330        63.940
C        85.290        75.100        63.810
C        84.290        74.590        64.660
S        84.750        73.680        66.120
C        85.000        75.630        62.410
H        84.711        76.679        62.538
H        84.124        75.078        62.054
C        86.010        75.610        61.250
H        86.219        74.582        60.938
H        86.962        76.055        61.559
C        85.390        76.420        60.070
H        84.340        76.151        59.915
H        85.920        76.220        59.133
C        85.520        77.970        60.470
H        86.565        78.287        60.552
H        85.050        78.186        61.435
C        84.790        78.600        59.290
H        83.854        78.068        59.090
H        85.399        78.533        58.383
C        84.500        80.080        59.630
H        83.877        80.181        60.525
H        85.419        80.645        59.818
H        83.974        80.592        58.818
C        83.040        75.260        64.460
C        83.160        76.530        65.010
H        83.860        76.690        65.840
C        82.400        77.490        64.340
C        81.640        76.880        63.350
S        81.620        75.060        63.400
C        82.490        78.980        64.710
H        82.566        79.109        65.795
H        81.594        79.518        64.384
C        83.760        79.550        64.000
H        83.782        80.633        64.157
H        83.661        79.369        62.925
C        85.130        78.960        64.470
H        85.330        78.044        63.905
H        85.049        78.682        65.526
C        86.270        79.920        64.290
H        86.143        80.774        64.963
H        86.266        80.311        63.267
C        87.610        79.250        64.570
H        87.919        79.403        65.609
H        88.402        79.675        63.945
C        87.370        77.840        64.270
H        86.579        77.416        64.898
H        87.064        77.688        63.230
H        88.264        77.229        64.430
C        81.280        77.630        62.250
C        81.840        76.980        61.190
H        82.640        76.260        61.380
C        81.310        77.530        60.020
C        80.620        78.670        60.320
S        80.200        79.010        62.000
C        81.470        76.780        58.720
H        82.373        77.130        58.210
H        80.618        77.001        58.069
C        81.570        75.230        58.900
H        82.410        74.954        59.546
H        81.721        74.723        57.941
C        80.190        74.830        59.550
H        79.383        74.975        58.825
H        79.979        75.483        60.403
C        80.270        73.400        59.980
H        79.302        73.053        60.357
H        80.989        73.279        60.797
C        80.690        72.600        58.780
H        81.739        72.802        58.538
H        80.098        72.889        57.906
C        80.500        71.120        59.070
H        81.096        70.790        59.928
H        79.457        70.877        59.296
H        80.794        70.495        58.221
C        80.430        79.620        59.330
C        80.920        80.880        59.760
H        81.420        80.890        60.750
C        80.870        81.870        58.740
C        80.270        81.320        57.620
S        79.960        79.570        57.630
C        81.490        83.140        59.030
H        81.382        83.386        60.092
H        81.000        83.942        58.468
C        82.950        83.090        58.670
H        83.085        82.794        57.625
H        83.478        82.349        59.280
C        83.510        84.480        58.910
H        84.542        84.530        58.546
H        83.537        84.687        59.985
C        82.670        85.520        58.210
H        81.697        85.634        58.699
H        82.471        85.231        57.173
C        83.460        86.810        58.270
H        83.968        86.897        59.236
H        82.787        87.669        58.180
C        84.500        86.840        57.130
H        85.207        86.007        57.198
H        84.029        86.777        56.143
H        85.093        87.760        57.140
C        80.020        82.240        56.640
C        78.630        82.230        56.450
H        77.880        81.510        56.900
C        78.350        82.990        55.320
C        79.440        83.800        54.940
S        81.010        83.350        55.620
C        76.990        82.780        54.710
H        76.588        83.727        54.336
H        76.286        82.411        55.463
C        77.130        81.790        53.590
H        77.903        82.160        52.909
H        76.185        81.772        53.037
C        77.480        80.360        53.950
H        76.657        79.880        54.490
H        78.359        80.325        54.603
C        77.770        79.590        52.610
H        78.148        78.585        52.822
H        78.539        80.111        52.029
C        76.440        79.520        51.820
H        76.636        79.291        50.767
H        75.928        80.487        51.853
C        75.530        78.410        52.450
H        76.004        77.424        52.418
H        75.299        78.616        53.500
H        74.573        78.319        51.927
C        79.280        84.900        54.100
C        80.430        85.670        54.180
H        81.150        85.610        54.970
C        80.380        86.770        53.260
C        79.230        86.750        52.500
S        78.140        85.410        52.780
C        81.540        87.780        53.190
H        81.722        88.056        52.146
H        82.454        87.314        53.572
C        81.240        89.080        54.020
H        80.935        88.825        55.040
H        80.416        89.644        53.571
C        82.530        89.880        54.010
H        83.372        89.261        54.338
H        82.466        90.726        54.702
C        82.760        90.380        52.570
H        81.876        90.893        52.176
H        82.979        89.552        51.887
C        83.970        91.350        52.690
H        84.220        91.742        51.698
H        84.843        90.796        53.051
C        83.660        92.490        53.630
H        82.802        93.079        53.291
H        83.423        92.137        54.639
H        84.502        93.183        53.726
C        79.360        87.590        51.380
C        79.140        86.830        50.270
H        79.400        85.810        50.160
C        78.660        87.620        49.210
C        78.790        88.960        49.600
S        79.160        89.340        51.280
C        78.020        87.150        47.890
H        78.797        87.000        47.133
H        77.344        87.922        47.509
C        77.270        85.870        48.130
H        77.897        85.167        48.689
H        77.024        85.395        47.175
C        75.970        86.140        48.920
H        76.186        86.784        49.779
H        75.571        85.198        49.310
C        74.910        86.820        48.010
H        75.214        87.845        47.774
H        73.948        86.882        48.529
C        74.790        85.990        46.750
H        75.768        85.622        46.423
H        74.379        86.580        45.924
C        73.850        84.810        47.100
H        74.248        84.197        47.915
H        72.860        85.154        47.416
H        73.695        84.142        46.247
C        78.020        89.810        48.800
C        78.670        90.930        48.300
H        79.690        90.980        48.080
C        77.770        91.980        48.090
C        76.470        91.600        48.430
S        76.250        89.940        49.010
C        78.140        93.330        47.570
H        77.330        93.690        46.927
H        79.033        93.230        46.944
C        78.410        94.370        48.620
H        77.473        94.808        48.978
H        79.007        95.189        48.206
C        79.150        93.700        49.760
H        80.231        93.695        49.585
H        78.846        92.654        49.872
C        78.790        94.510        50.960
H        77.743        94.825        50.909
H        79.397        95.420        51.003
C        79.020        93.670        52.220
H        78.337        92.814        52.230
H        78.802        94.265        53.113
C        80.450        93.200        52.240
H        80.693        92.587        51.366
H        81.157        94.036        52.247
H        80.670        92.592        53.124
C        75.460        92.600        48.530
C        75.350        93.280        49.800
H        75.910        92.980        50.640
C        74.440        94.350        49.730
C        73.710        94.100        48.540
S        74.300        93.070        47.240
C        74.340        95.410        50.850
H        74.594        94.973        51.821
H        73.318        95.795        50.929
C        75.320        96.530        50.480
H        75.227        96.808        49.425
H        76.358        96.217        50.632
C        74.940        97.660        51.390
H        73.863        97.681        51.588
H        75.199        98.634        50.962
C        75.740        97.380        52.670
H        76.726        97.853        52.617
H        75.909        96.305        52.789
C        74.940        97.930        53.820
H        75.525        97.825        54.740
H        74.031        97.330        53.938
C        74.530        99.410        53.670
H        75.400       100.069        53.580
H        73.912        99.577        52.781
H        73.951        99.764        54.529
C        72.390        94.570        48.580
C        71.510        93.520        48.360
H        71.920        92.590        47.980
C        70.230        94.030        48.360
C        70.240        95.380        48.650
S        71.830        96.190        48.790
C        69.010        93.120        48.340
H        68.108        93.691        48.097
H        68.850        92.669        49.325
C        69.250        92.020        47.280
H        69.776        91.163        47.712
H        69.874        92.391        46.460
C        67.880        91.660        46.820
H        67.410        92.514        46.321
H        67.248        91.400        47.676
C        67.950        90.470        45.850
H        68.299        89.554        46.338
H        68.630        90.654        45.012
C        66.490        90.380        45.410
H        66.388        89.733        44.533
H        66.109        91.365        45.122
C        65.740        89.830        46.580
H        66.105        88.840        46.873
H        65.827        90.473        47.462
H        64.671        89.724        46.369
C        68.980        95.970        48.840
C        69.130        97.190        48.270
H        69.960        97.490        47.660
C        68.040        98.010        48.580
C        67.090        97.360        49.400
S        67.470        95.690        49.820
C        67.890        99.470        48.170
H        66.830        99.744        48.187
H        68.244        99.595        47.141
C        68.670       100.420        49.090
H        68.328       100.276        50.120
H        68.445       101.453        48.805
C        70.250       100.230        49.060
H        70.627       100.557        48.085
H        70.479        99.164        49.158
C        70.910       101.000        50.150
H        70.422       100.800        51.110
H        70.824       102.076        49.965
C        72.380       100.600        50.220
H        72.457        99.548        50.512
H        72.881       101.190        50.995
C        73.080       100.810        48.890
H        72.624       100.219        48.089
H        73.047       101.857        48.570
H        74.136       100.525        48.933
C        65.820        97.900        49.450
C        65.040        97.860        48.250
H        65.310        97.400        47.350
C        63.760        98.470        48.470
C        63.600        98.840        49.780
S        64.980        98.520        50.900
C        62.870        98.760        47.250
H        63.447        98.690        46.322
H        62.465        99.776        47.296
C        61.770        97.730        47.290
H        61.256        97.765        48.256
H        62.191        96.725        47.183
C        60.750        97.990        46.150
H        61.273        98.282        45.233
H        60.082        98.814        46.420
C        59.930        96.690        45.910
H        59.252        96.802        45.057
H        59.305        96.451        46.777
C        60.970        95.670        45.670
H        61.780        95.726        46.405
H        61.436        95.781        44.686
C        60.210        94.360        45.780
H        59.749        94.235        46.765
H        59.405        94.290        45.041
H        60.861        93.494        45.623
C        62.320        99.260        50.100
C        61.980       100.590        49.960
H        62.670       101.420        49.930
C        60.580       100.700        49.780
C        60.020        99.450        50.040
S        61.060        98.120        50.680
C        59.770       101.860        49.220
H        60.296       102.795        49.440
H        58.805       101.897        49.736
C        59.520       101.780        47.720
H        59.515       100.740        47.378
H        60.308       102.298        47.163
C        58.130       102.450        47.450
H        58.107       103.453        47.889
H        57.335       101.867        47.927
C        57.890       102.530        45.920
H        58.783       102.921        45.421
H        57.067       103.220        45.706
C        57.550       101.110        45.360
H        58.318       100.385        45.650
H        57.517       101.123        44.266
C        56.180       100.730        45.950
H        56.198       100.704        47.045
H        55.398       101.441        45.662
H        55.849        99.742        45.615
C        58.640        99.400        50.040
C        58.140        99.420        51.300
H        58.660        99.680        52.220
C        56.730        99.220        51.340
C        56.300        99.160        50.030
S        57.490        98.960        48.750
C        55.920        99.140        52.610
H        54.888        99.435        52.396
H        56.323        99.853        53.337
C        55.900        97.720        53.270
H        56.886        97.470        53.675
H        55.650        96.955        52.528
C        54.830        97.750        54.410
H        54.872        96.817        54.981
H        53.828        97.822        53.975
C        55.090        98.950        55.340
H        55.041        99.890        54.780
H        56.093        98.890        55.775
C        54.030        98.900        56.410
H        54.249        98.126        57.153
H        53.047        98.666        55.988
C        54.030       100.300        57.060
H        55.001       100.548        57.501
H        53.800       101.088        56.336
H        53.289       100.380        57.862
C        54.910        99.250        49.910
C        54.660       100.360        49.210
H        55.250       101.250        49.160
C        53.250       100.350        48.960
C        52.740        99.090        49.280
S        53.700        97.990        50.230
C        52.450       101.540        48.360
H        51.991       102.096        49.184
H        51.641       101.135        47.744
C        53.270       102.500        47.520
H        53.630       102.018        46.605
H        54.156       102.844        48.063
C        52.340       103.640        47.210
H        52.054       104.187        48.115
H        51.412       103.291        46.745
C        53.140       104.550        46.240
H        54.000       104.937        46.796
H        52.495       105.399        45.988
C        53.660       103.970        44.940
H        52.905       103.344        44.454
H        54.535       103.333        45.110
C        54.010       105.170        44.090
H        53.141       105.809        43.905
H        54.772       105.799        44.562
H        54.403       104.878        43.110
C        51.580        98.730        48.600
C        50.920        97.910        49.490
H        51.130        97.740        50.540
C        49.930        97.200        48.810
C        50.200        97.330        47.440
S        51.250        98.670        46.860
C        48.930        96.350        49.500
H        49.401        95.763        50.295
H        48.481        95.635        48.803
C        47.880        97.260        50.070
H        48.351        97.937        50.791
H        47.146        96.657        50.615
C        47.120        98.120        49.020
H        47.826        98.683        48.400
H        46.473        98.851        49.517
C        46.290        97.150        48.160
H        45.506        96.686        48.768
H        46.927        96.342        47.784
C        45.680        97.920        47.010
H        45.280        98.882        47.348
H        44.843        97.370        46.568
C        46.790        98.110        46.020
H        47.630        98.668        46.447
H        47.192        97.155        45.666
H        46.460        98.663        45.134
C        49.880        96.100        46.710
C        51.040        95.770        45.970
H        52.030        96.210        45.970
C        50.790        94.670        45.140
C        49.460        94.320        45.310
S        48.470        95.080        46.520
C        51.750        94.100        44.090
H        52.306        94.910        43.606
H        51.189        93.580        43.307
C        52.720        93.130        44.780
H        52.150        92.444        45.415
H        53.393        93.698        45.431
C        53.560        92.310        43.780
H        54.343        92.932        43.333
H        52.933        91.941        42.961
C        54.190        91.120        44.560
H        54.757        91.470        45.429
H        54.890        90.559        43.932
C        53.000        90.290        44.960
H        52.898        89.458        44.256
H        52.098        90.904        44.876
C        53.060        89.710        46.390
H        53.927        89.056        46.531
H        53.129        90.496        47.149
H        52.172        89.116        46.629
H        49.013        93.549        44.674
