  452
Data form file: SCF_n_PBE0_6-31G#_CHelpG_P3HT_1226_R18/SCF_n_PBE0_6-31G#_CHelpG_P3HT_1226_R18.log  geo_count:  1
H        41.706       225.479        49.778
C        40.660       225.520        50.100
C        40.360       225.840        51.380
H        41.150       225.930        52.110
C        38.930       225.960        51.440
C        38.340       225.550        50.220
S        39.450       225.160        48.900
C        38.230       226.640        52.650
H        38.736       226.336        53.572
H        37.196       226.286        52.709
C        38.230       228.190        52.560
H        37.837       228.491        51.584
H        39.262       228.552        52.621
C        37.410       228.810        53.650
H        37.798       228.557        54.642
H        36.373       228.459        53.625
C        37.510       230.260        53.370
H        37.349       230.455        52.305
H        38.513       230.628        53.612
C        36.480       230.990        54.190
H        35.512       230.479        54.186
H        36.298       232.003        53.816
C        37.110       231.000        55.570
H        37.288       229.987        55.947
H        38.076       231.515        55.576
H        36.477       231.505        56.306
C        37.090       224.980        50.440
C        36.620       224.650        49.130
H        36.930       225.180        48.170
C        35.800       223.510        49.170
C        35.500       223.310        50.530
S        36.430       224.120        51.780
C        35.520       222.630        48.000
H        35.412       223.272        47.120
H        34.554       222.144        48.173
C        36.510       221.560        47.660
H        36.517       220.785        48.433
H        37.522       221.975        47.615
C        36.130       220.960        46.320
H        35.043       220.867        46.230
H        36.544       219.952        46.214
C        36.680       221.880        45.270
H        37.771       221.959        45.325
H        36.286       222.897        45.369
C        36.230       221.230        43.950
H        36.634       220.215        43.874
H        36.619       221.799        43.099
C        34.690       221.190        43.900
H        34.268       220.612        44.729
H        34.252       222.192        43.956
H        34.321       220.734        42.975
C        34.570       222.330        50.630
C        35.120       221.090        51.000
H        36.190       220.940        51.250
C        34.080       220.160        50.990
C        32.860       220.730        50.600
S        32.810       222.460        50.420
C        34.340       218.620        51.250
H        33.379       218.129        51.438
H        34.945       218.515        52.156
C        35.030       217.960        50.100
H        35.998       218.432        49.905
H        34.439       218.060        49.183
C        35.210       216.510        50.460
H        36.028       216.395        51.179
H        35.483       215.929        49.573
C        33.930       216.010        51.040
H        33.204       215.741        50.265
H        33.447       216.758        51.677
C        34.360       214.770        51.860
H        33.467       214.295        52.279
H        34.978       215.099        52.702
C        35.110       213.790        51.040
H        34.516       213.420        50.197
H        36.024       214.222        50.619
H        35.413       212.914        51.623
C        31.960       219.870        50.010
C        32.250       219.800        48.660
H        33.070       220.360        48.280
C        31.580       218.750        48.100
C        30.540       218.340        48.970
S        30.460       219.100        50.590
C        31.980       218.070        46.800
H        31.406       218.493        45.969
H        31.743       217.002        46.853
C        33.520       218.240        46.500
H        34.102       217.936        47.377
H        33.744       219.295        46.310
C        33.900       217.390        45.290
H        33.530       217.865        44.375
H        33.418       216.410        45.363
C        35.400       217.220        45.210
H        35.924       218.174        45.090
H        35.707       216.591        44.368
C        35.680       216.570        46.550
H        35.328       215.533        46.559
H        35.153       217.095        47.353
C        37.210       216.620        46.790
H        37.765       216.087        46.011
H        37.590       217.647        46.804
H        37.490       216.165        47.746
C        29.790       217.350        48.520
C        30.380       216.150        48.800
H        31.170       215.970        49.540
C        30.050       215.300        47.700
C        29.000       215.870        46.990
S        28.330       217.420        47.480
C        30.870       214.030        47.470
H        30.269       213.337        46.872
H        31.053       213.559        48.442
C        32.240       214.210        46.760
H        32.901       214.844        47.360
H        32.107       214.709        45.794
C        32.830       212.830        46.580
H        32.071       212.166        46.153
H        33.105       212.425        47.559
C        34.070       212.820        45.670
H        34.932       213.318        46.126
H        33.893       213.316        44.710
C        34.290       211.280        45.510
H        34.344       210.793        46.490
H        35.236       211.076        44.997
C        33.100       210.760        44.700
H        32.147       210.950        45.204
H        33.037       211.232        43.714
H        33.159       209.680        44.531
C        29.100       215.460        45.670
C        28.100       214.580        45.310
H        27.370       214.250        46.030
C        28.320       214.180        44.010
C        29.440       214.850        43.540
S        30.270       216.030        44.560
C        27.420       213.260        43.180
H        27.936       212.998        42.250
H        26.508       213.802        42.907
C        27.040       211.980        43.920
H        26.400       211.362        43.281
H        26.458       212.231        44.813
C        28.270       211.210        44.310
H        28.019       210.485        45.091
H        29.018       211.894        44.725
C        28.910       210.440        43.090
H        29.648       209.730        43.477
H        29.441       211.164        42.463
C        27.890       209.670        42.210
H        27.069       210.334        41.920
H        27.449       208.846        42.781
C        28.610       209.160        41.010
H        29.049       209.971        40.419
H        29.429       208.485        41.279
H        27.947       208.603        40.340
C        30.160       214.130        42.620
C        29.910       214.380        41.270
H        29.050       215.050        40.910
C        30.710       213.580        40.470
C        31.640       212.980        41.380
S        31.470       213.100        43.150
C        30.500       213.370        38.950
H        31.420       213.000        38.486
H        30.255       214.320        38.464
C        29.370       212.370        38.780
H        28.419       212.911        38.730
H        29.328       211.725        39.664
C        29.530       211.540        37.570
H        29.115       212.051        36.695
H        28.986       210.595        37.676
C        31.020       211.260        37.350
H        31.576       211.572        38.240
H        31.376       211.866        36.510
C        31.340       209.770        37.060
H        30.886       209.462        36.113
H        30.919       209.132        37.844
C        32.870       209.610        37.000
H        33.317       210.228        36.214
H        33.350       209.899        37.941
H        33.167       208.576        36.797
C        32.520       212.070        40.830
C        32.040       210.750        40.920
H        31.010       210.510        40.960
C        33.090       209.830        40.780
C        34.320       210.540        40.630
S        34.210       212.310        40.420
C        32.750       208.360        40.860
H        33.506       207.772        40.328
H        31.790       208.171        40.369
C        32.680       207.910        42.320
H        31.824       208.384        42.812
H        33.581       208.236        42.851
C        32.550       206.390        42.410
H        33.448       205.895        42.027
H        31.708       206.031        41.809
C        32.340       206.080        43.890
H        32.469       205.015        44.110
H        31.333       206.345        44.228
C        33.400       206.930        44.520
H        33.403       207.918        44.048
H        34.382       206.481        44.339
C        33.200       207.100        46.030
H        32.241       207.573        46.266
H        33.218       206.140        46.557
H        33.980       207.723        46.480
C        35.520       209.820        40.760
C        35.880       210.030        42.100
H        35.310       210.620        42.840
C        36.890       209.200        42.430
C        37.130       208.410        41.310
S        36.240       208.630        39.710
C        37.310       208.980        43.850
H        37.756       207.985        43.949
H        36.429       209.005        44.500
C        38.300       210.020        44.310
H        37.854       211.020        44.313
H        39.168       210.066        43.644
C        38.690       209.590        45.690
H        37.927       209.866        46.425
H        39.622       210.068        46.009
C        38.850       208.080        45.610
H        39.121       207.804        44.586
H        37.888       207.608        45.833
C        39.910       207.520        46.570
H        40.902       207.879        46.277
H        39.927       206.427        46.506
C        39.610       207.950        48.020
H        39.605       209.039        48.132
H        38.633       207.591        48.360
H        40.353       207.562        48.725
C        37.570       207.140        41.740
C        36.450       206.320        41.670
H        35.410       206.620        41.490
C        36.920       205.010        41.810
C        38.240       204.970        42.130
S        39.190       206.490        42.210
C        36.020       203.740        41.700
H        35.492       203.556        42.642
H        36.626       202.852        41.491
C        35.020       204.010        40.550
H        34.574       205.007        40.633
H        34.192       203.294        40.563
C        35.870       203.870        39.320
H        36.191       202.827        39.225
H        36.774       204.476        39.441
C        35.170       204.280        38.080
H        34.458       203.513        37.759
H        35.879       204.419        37.257
C        34.440       205.590        38.380
H        35.153       206.363        38.686
H        33.742       205.455        39.213
C        33.720       205.990        37.140
H        34.405       206.141        36.299
H        32.993       205.234        36.826
H        33.167       206.926        37.271
C        38.880       203.770        42.180
C        39.690       203.740        43.290
H        39.680       204.530        44.030
C        40.440       202.530        43.290
C        40.120       201.830        42.060
S        39.030       202.530        40.950
C        41.330       202.090        44.410
H        42.204       201.555        44.024
H        40.803       201.400        45.077
C        41.770       203.340        45.180
H        40.900       203.988        45.331
H        42.492       203.895        44.572
C        42.400       203.030        46.540
H        43.387       202.580        46.390
H        41.783       202.295        47.068
C        42.540       204.290        47.400
H        41.557       204.641        47.732
H        42.995       205.101        46.822
C        43.430       203.940        48.630
H        44.477       203.999        48.315
H        43.225       202.901        48.909
C        43.250       204.810        49.860
H        43.471       205.863        49.654
H        42.225       204.770        50.244
H        43.908       204.503        50.680
C        40.710       200.660        41.900
C        41.680       200.760        40.910
H        41.820       201.490        40.060
C        42.550       199.660        41.110
C        42.040       198.790        42.060
S        40.530       199.190        42.880
C        43.850       199.440        40.310
H        43.619       198.876        39.400
H        44.539       198.833        40.907
C        44.550       200.760        39.920
H        43.828       201.393        39.393
H        45.362       200.529        39.223
C        45.150       201.590        41.110
H        44.417       202.311        41.486
H        46.021       202.164        40.779
C        45.520       200.580        42.160
H        46.568       200.280        42.056
H        44.919       199.671        42.052
C        45.280       201.220        43.490
H        44.375       201.836        43.495
H        46.109       201.869        43.792
C        45.130       199.990        44.500
H        44.297       199.334        44.227
H        46.030       199.367        44.524
H        44.948       200.323        45.527
C        42.820       197.640        42.340
C        42.960       197.530        43.720
H        42.800       198.310        44.430
C        43.220       196.220        44.090
C        43.370       195.540        42.900
S        43.330       196.290        41.350
C        43.280       195.820        45.580
H        43.969       194.981        45.725
H        42.295       195.495        45.930
C        43.760       197.060        46.390
H        43.076       197.901        46.237
H        44.749       197.379        46.044
C        43.810       196.670        47.880
H        44.559       195.890        48.052
H        42.845       196.270        48.209
C        44.170       197.960        48.690
H        45.197       198.282        48.489
H        44.095       197.786        49.769
C        43.140       199.010        48.210
H        42.129       198.649        48.428
H        43.220       199.123        47.124
C        43.350       200.370        48.880
H        43.256       200.310        49.969
H        44.343       200.782        48.670
H        42.620       201.112        48.539
C        43.930       194.270        43.080
C        45.290       194.320        43.330
H        45.810       195.130        43.860
C        45.840       193.220        42.630
C        44.830       192.410        42.130
S        43.160       192.810        42.440
C        47.310       192.870        42.700
H        47.546       192.260        41.822
H        47.458       192.246        43.588
C        48.340       194.000        42.760
H        48.140       194.664        43.607
H        48.291       194.619        41.858
C        49.640       193.330        42.890
H        50.018       192.912        41.951
H        49.643       192.505        43.610
C        50.450       194.540        43.370
H        50.079       194.822        44.361
H        50.242       195.375        42.692
C        51.910       194.350        43.450
H        52.158       193.522        44.123
H        52.396       195.244        43.855
C        52.430       194.060        42.050
H        51.979       193.158        41.623
H        52.218       194.880        41.356
H        53.514       193.908        42.039
C        45.230       191.570        41.090
C        44.810       190.230        41.150
H        44.130       189.810        41.930
C        45.400       189.490        40.110
C        46.460       190.180        39.580
S        46.340       191.930        39.790
C        45.070       188.070        39.760
H        45.484       187.864        38.767
H        43.981       187.987        39.685
C        45.550       187.000        40.690
H        45.221       187.219        41.711
H        46.645       186.980        40.700
C        45.020       185.620        40.270
H        45.320       185.402        39.240
H        43.925       185.616        40.295
C        45.570       184.570        41.210
H        45.714       185.007        42.203
H        46.550       184.237        40.854
C        44.630       183.340        41.330
H        45.157       182.478        41.753
H        44.252       183.033        40.349
C        43.490       183.810        42.250
H        43.857       184.115        43.236
H        42.953       184.668        41.833
H        42.747       183.023        42.418
C        47.650       189.480        39.640
C        48.070       189.780        40.930
H        48.030       190.730        41.460
C        48.630       188.630        41.420
C        49.060       187.840        40.360
S        48.430       188.200        38.740
C        48.880       188.450        42.930
H        49.861       188.864        43.184
H        48.905       187.381        43.166
C        47.810       189.130        43.770
H        47.488       190.048        43.267
H        48.241       189.419        44.734
C        46.580       188.240        44.020
H        46.048       188.093        43.074
H        45.895       188.760        44.698
C        46.960       186.940        44.590
H        47.383       187.091        45.589
H        47.742       186.487        43.972
C        45.790       185.950        44.700
H        45.435       185.655        43.707
H        44.941       186.407        45.219
C        46.320       184.750        45.470
H        47.164       184.275        44.959
H        46.670       185.026        46.470
H        45.555       183.978        45.604
C        49.770       186.790        40.880
C        51.110       187.120        41.010
H        51.620       187.990        40.480
C        51.530       186.520        42.210
C        50.710       185.440        42.520
S        49.160       185.340        41.680
C        52.650       187.100        43.020
H        53.601       186.664        42.697
H        52.516       186.836        44.074
C        52.710       188.600        42.880
H        51.973       189.056        43.549
H        52.437       188.880        41.857
C        54.090       189.160        43.200
H        54.807       188.853        42.432
H        54.447       188.757        44.154
C        54.020       190.680        43.270
H        53.522       191.068        42.375
H        55.033       191.095        43.284
C        53.260       191.140        44.520
H        52.335       190.565        44.628
H        52.975       192.192        44.418
C        54.140       190.950        45.730
H        54.429       189.903        45.867
H        55.067       191.528        45.657
H        53.642       191.265        46.653
C        50.980       184.770        43.740
C        49.820       184.320        44.390
H        48.830       184.760        44.210
C        50.160       183.230        45.160
C        51.560       183.220        45.360
S        52.550       184.060        44.190
C        49.180       182.130        45.710
H        48.357       182.566        46.285
H        49.689       181.426        46.377
C        48.720       181.490        44.420
H        49.552       180.941        43.966
H        48.426       182.269        43.709
C        47.590       180.580        44.670
H        46.851       181.059        45.321
H        47.934       179.677        45.184
C        46.910       180.180        43.330
H        47.698       180.000        42.592
H        46.318       181.034        42.983
C        46.000       178.950        43.370
H        45.422       178.932        44.300
H        46.597       178.032        43.347
C        45.080       179.020        42.170
H        44.462       179.924        42.179
H        45.636       179.025        41.227
H        44.394       178.168        42.129
H        51.984       182.698        46.224
