  477
Data form file: SCF_n_PBE0_6-31G#_CHelpG_P3HT_583_R19/SCF_n_PBE0_6-31G#_CHelpG_P3HT_583_R19.log  geo_count:  1
H        39.642       234.701        53.847
C        39.360       235.230        52.930
C        38.360       234.730        52.130
H        37.720       233.810        52.240
C        38.210       235.570        51.030
C        39.060       236.660        51.090
S        40.180       236.750        52.440
C        37.250       235.280        49.870
H        36.844       236.212        49.464
H        36.399       234.683        50.215
C        38.040       234.530        48.810
H        38.262       233.514        49.153
H        39.001       235.025        48.634
C        37.230       234.490        47.540
H        36.817       235.485        47.343
H        36.386       233.805        47.671
C        38.050       234.040        46.310
H        38.504       233.064        46.508
H        38.867       234.748        46.134
C        37.160       233.960        45.090
H        37.762       233.694        44.215
H        36.722       234.944        44.892
C        36.070       232.950        45.280
H        36.468       231.946        45.458
H        35.430       233.193        46.134
H        35.417       232.881        44.404
C        38.760       237.670        50.160
C        38.180       238.720        50.920
H        38.270       238.850        51.990
C        37.640       239.610        50.010
C        37.810       239.140        48.670
S        38.800       237.750        48.360
C        36.860       240.880        50.320
H        36.862       241.571        49.471
H        37.291       241.420        51.170
C        35.420       240.390        50.640
H        35.449       239.554        51.347
H        34.929       240.028        49.731
C        34.640       241.580        51.240
H        34.952       241.756        52.275
H        33.567       241.360        51.259
C        34.920       242.810        50.380
H        34.922       242.557        49.315
H        35.902       243.238        50.608
C        33.790       243.810        50.710
H        32.867       243.481        50.222
H        34.048       244.791        50.297
C        33.550       243.940        52.210
H        33.266       242.985        52.664
H        34.442       244.290        52.739
H        32.748       244.650        52.437
C        37.170       239.780        47.650
C        36.280       238.910        47.070
H        36.080       237.870        47.360
C        35.720       239.430        45.910
C        36.160       240.760        45.730
S        37.350       241.380        46.930
C        34.620       238.600        45.100
H        33.887       239.296        44.679
H        34.091       237.939        45.794
C        35.250       237.750        43.950
H        35.852       236.931        44.357
H        35.914       238.363        43.332
C        34.060       237.200        43.110
H        33.217       237.898        43.146
H        33.705       236.253        43.531
C        34.560       237.030        41.750
H        35.483       236.441        41.730
H        34.789       237.993        41.281
C        33.440       236.300        40.960
H        33.785       235.989        39.968
H        32.570       236.947        40.806
C        33.100       235.090        41.850
H        33.966       234.438        42.005
H        32.752       235.396        42.842
H        32.310       234.469        41.414
C        35.620       241.390        44.590
C        35.710       242.770        44.800
H        35.930       243.160        45.760
C        35.060       243.580        43.810
C        34.530       242.760        42.810
S        34.860       241.000        43.020
C        34.720       245.030        43.920
H        34.549       245.301        44.967
H        33.795       245.245        43.374
C        35.880       245.910        43.340
H        36.252       245.483        42.403
H        36.725       245.937        44.036
C        35.300       247.270        43.130
H        36.093       247.996        42.922
H        34.786       247.610        44.035
C        34.330       247.210        41.970
H        33.467       246.589        42.232
H        34.809       246.746        41.102
C        33.870       248.620        41.620
H        33.266       248.581        40.707
H        34.748       249.237        41.402
C        33.080       249.250        42.710
H        32.177       248.678        42.946
H        33.655       249.332        43.639
H        32.755       250.262        42.448
C        33.960       243.400        41.710
C        34.950       243.430        40.760
H        35.990       243.100        40.930
C        34.410       243.740        39.530
C        33.090       244.170        39.810
S        32.400       244.150        41.420
C        35.150       243.680        38.140
H        35.721       244.594        37.947
H        34.443       243.566        37.311
C        36.060       242.450        38.300
H        36.643       242.560        39.220
H        36.767       242.423        37.464
C        35.300       241.120        38.350
H        34.680       240.970        37.460
H        34.628       241.066        39.213
C        36.430       240.090        38.440
H        35.996       239.086        38.392
H        36.919       240.189        39.415
C        37.470       240.230        37.350
H        37.777       241.280        37.300
H        37.002       239.977        36.393
C        38.740       239.370        37.500
H        39.282       239.596        38.424
H        38.510       238.300        37.521
H        39.442       239.527        36.674
C        32.450       244.410        38.560
C        32.050       245.790        38.410
H        32.420       246.640        39.040
C        31.150       245.820        37.350
C        30.980       244.540        36.810
S        31.880       243.150        37.460
C        30.410       247.150        37.170
H        30.109       247.482        38.169
H        29.498       246.931        36.605
C        31.080       248.280        36.510
H        31.854       247.955        35.807
H        31.568       248.952        37.224
C        29.910       249.010        35.760
H        30.262       249.963        35.351
H        29.098       249.236        36.459
C        29.410       248.090        34.630
H        29.264       247.075        35.013
H        30.161       248.034        33.835
C        28.070       248.630        34.050
H        27.700       247.937        33.287
H        28.249       249.593        33.560
C        27.010       248.800        35.150
H        26.786       247.854        35.653
H        27.332       249.503        35.925
H        26.063       249.180        34.752
C        29.870       244.480        36.050
C        30.230       243.570        35.090
H        31.220       243.300        34.690
C        29.060       243.140        34.530
C        27.990       243.970        34.860
S        28.140       245.020        36.270
C        28.970       241.900        33.690
H        29.004       242.163        32.628
H        28.015       241.394        33.868
C        30.130       240.940        34.020
H        30.316       240.923        35.099
H        31.054       241.279        33.540
C        29.740       239.560        33.520
H        29.541       239.580        32.443
H        28.825       239.214        34.012
C        30.920       238.580        33.830
H        30.661       237.929        34.672
H        31.814       239.142        34.120
C        31.180       237.760        32.570
H        30.259       237.650        31.989
H        31.517       236.752        32.833
C        32.250       238.480        31.740
H        31.934       239.487        31.448
H        33.190       238.590        32.290
H        32.485       237.941        30.816
C        27.010       244.060        33.890
C        25.720       244.290        34.390
H        25.450       244.410        35.450
C        24.740       244.230        33.410
C        25.250       243.730        32.200
S        27.010       243.780        32.130
C        23.360       244.710        33.670
H        23.050       244.513        34.702
H        22.630       244.214        33.021
C        23.400       246.230        33.390
H        23.672       246.442        32.351
H        24.141       246.737        34.017
C        22.000       246.650        33.710
H        21.914       247.735        33.591
H        21.785       246.416        34.758
C        20.910       245.970        32.820
H        20.995       244.883        32.917
H        21.095       246.222        31.771
C        19.490       246.410        33.210
H        19.332       246.190        34.271
H        18.768       245.811        32.645
C        19.250       247.840        32.960
H        19.938       248.477        33.526
H        19.375       248.098        31.903
H        18.236       248.141        33.242
C        24.390       243.420        31.190
C        25.060       243.460        29.970
H        25.950       244.000        29.910
C        24.540       242.590        29.020
C        23.400       242.010        29.520
S        22.860       242.500        31.140
C        25.120       242.570        27.680
H        24.907       241.640        27.143
H        26.209       242.681        27.692
C        24.440       243.790        26.980
H        24.896       244.725        27.321
H        23.379       243.835        27.245
C        24.620       243.610        25.500
H        24.017       242.762        25.160
H        25.667       243.371        25.287
C        24.220       244.860        24.700
H        24.186       244.645        23.627
H        24.946       245.667        24.844
C        22.810       245.290        25.220
H        22.726       246.382        25.217
H        22.675       244.959        26.255
C        21.770       244.670        24.320
H        21.880       244.996        23.281
H        21.829       243.577        24.317
H        20.752       244.931        24.628
C        23.070       240.810        28.890
C        22.930       239.860        29.850
H        23.110       240.050        30.930
C        22.440       238.670        29.300
C        22.470       238.840        27.930
S        22.790       240.420        27.170
C        22.080       237.380        30.020
H        22.130       236.520        29.344
H        21.057       237.414        30.409
C        23.090       237.270        31.130
H        22.622       236.831        32.017
H        23.446       238.267        31.410
C        24.290       236.400        30.700
H        24.999       236.295        31.528
H        24.827       236.876        29.873
C        23.760       235.020        30.270
H        24.482       234.549        29.595
H        22.828       235.149        29.710
C        23.520       234.130        31.460
H        23.154       234.692        32.326
H        24.434       233.622        31.784
C        22.490       233.160        30.940
H        21.574       233.667        30.620
H        22.858       232.595        30.077
H        22.198       232.426        31.698
C        21.990       237.710        27.240
C        21.150       238.180        26.240
H        20.670       239.120        26.210
C        21.110       237.330        25.140
C        21.890       236.210        25.420
S        22.770       236.210        26.960
C        20.660       237.830        23.830
H        19.693       238.333        23.935
H        20.517       236.992        23.140
C        21.680       238.830        23.200
H        22.663       238.355        23.116
H        21.795       239.703        23.851
C        21.180       239.260        21.820
H        20.227       239.787        21.934
H        20.993       238.367        21.214
C        22.170       240.180        21.060
H        21.666       240.744        20.268
H        22.968       239.603        20.582
C        22.730       241.120        22.160
H        22.940       240.545        23.068
H        21.981       241.875        22.420
C        24.010       241.800        21.660
H        24.789       241.073        21.407
H        23.832       242.399        20.761
H        24.437       242.474        22.411
C        22.170       235.430        24.310
C        21.170       234.670        23.760
H        20.080       234.710        24.050
C        21.670       234.030        22.600
C        22.960       234.500        22.390
S        23.740       235.470        23.600
C        20.840       233.160        21.690
H        21.248       233.134        20.674
H        19.812       233.527        21.609
C        20.880       231.760        22.340
H        21.926       231.484        22.510
H        20.461       231.036        21.634
C        20.130       231.670        23.640
H        19.197       231.114        23.503
H        19.861       232.671        23.994
C        21.010       230.960        24.700
H        22.007       231.410        24.752
H        21.150       229.903        24.453
C        20.250       231.130        26.020
H        20.853       230.766        26.859
H        19.326       230.543        26.008
C        19.930       232.630        26.200
H        20.837       233.242        26.231
H        19.314       233.019        25.383
H        19.384       232.824        27.129
C        23.590       234.170        21.190
C        24.310       235.250        20.770
H        24.230       236.290        21.220
C        25.300       234.900        19.860
C        25.160       233.550        19.580
S        23.850       232.640        20.390
C        26.500       235.840        19.390
H        26.757       235.549        18.366
H        27.360       235.609        20.028
C        26.270       237.300        19.420
H        25.198       237.510        19.489
H        26.624       237.755        18.489
C        26.980       237.900        20.580
H        26.554       237.607        21.545
H        26.982       238.995        20.565
C        28.390       237.310        20.360
H        28.821       237.732        19.446
H        28.311       236.228        20.211
C        29.290       237.600        21.530
H        29.320       238.683        21.687
H        30.305       237.274        21.279
C        28.890       236.930        22.880
H        27.894       237.240        23.213
H        28.874       235.838        22.807
H        29.587       237.183        23.686
C        26.120       232.920        18.790
C        25.720       232.350        17.570
H        24.710       232.210        17.310
C        26.820       232.080        16.750
C        27.970       232.410        17.480
S        27.810       232.810        19.220
C        26.730       231.630        15.280
H        27.683       231.835        14.781
H        25.960       232.218        14.769
C        26.400       230.140        15.150
H        26.052       229.937        14.132
H        25.578       229.893        15.830
C        27.590       229.260        15.460
H        28.513       229.818        15.269
H        27.586       228.395        14.788
C        27.600       228.760        16.920
H        26.635       228.327        17.205
H        27.801       229.574        17.624
C        28.720       227.710        16.930
H        29.638       228.153        16.531
H        28.447       226.880        16.271
C        28.970       227.190        18.330
H        29.267       227.989        19.017
H        28.079       226.719        18.758
H        29.767       226.440        18.353
C        29.080       232.690        16.640
C        29.500       233.990        16.950
H        29.210       234.620        17.820
C        30.420       234.370        15.960
C        30.800       233.290        15.170
S        30.010       231.710        15.510
C        31.030       235.740        16.010
H        30.284       236.499        16.265
H        31.458       236.021        15.042
C        32.170       235.700        17.120
H        32.883       234.908        16.867
H        31.718       235.443        18.083
C        32.910       237.040        17.240
H        33.405       237.140        18.212
H        32.223       237.888        17.148
C        33.910       237.000        16.100
H        34.193       238.042        15.917
H        33.351       236.647        15.227
C        35.170       236.230        16.120
H        34.961       235.163        16.246
H        35.788       236.535        16.971
C        35.910       236.460        14.840
H        35.328       236.145        13.968
H        36.155       237.517        14.692
H        36.855       235.908        14.808
C        31.380       233.670        13.980
C        30.760       232.950        12.930
H        29.730       232.560        13.060
C        31.520       232.940        11.760
C        32.600       233.770        12.010
S        33.010       234.310        13.690
C        31.260       231.990        10.630
H        31.776       231.039        10.796
H        31.637       232.398         9.686
C        29.740       231.760        10.540
H        29.276       232.699        10.220
H        29.373       231.533        11.547
C        29.260       230.650         9.600
H        29.686       229.683         9.888
H        29.582       230.844         8.571
C        27.760       230.640         9.710
H        27.334       230.029         8.907
H        27.373       231.657         9.586
C        27.290       230.080        11.080
H        27.866       230.550        11.884
H        27.492       229.005        11.123
C        25.830       230.340        11.270
H        25.598       231.410        11.248
H        25.224       229.868        10.490
H        25.466       229.956        12.229
C        33.400       234.160        10.960
C        32.560       234.940        10.160
H        31.470       234.980        10.290
C        33.270       235.300         8.960
C        34.600       234.920         9.170
S        35.140       234.050        10.640
C        32.700       236.000         7.740
H        32.148       235.288         7.118
H        33.509       236.409         7.126
C        31.750       237.150         8.190
H        32.052       237.483         9.188
H        30.733       236.752         8.271
C        31.750       238.330         7.250
H        30.855       238.927         7.453
H        31.666       237.950         6.226
C        32.940       239.230         7.320
H        32.936       239.948         6.493
H        33.869       238.656         7.239
C        32.880       239.960         8.660
H        32.513       239.284         9.440
H        32.176       240.796         8.601
C        34.270       240.470         9.020
H        34.996       239.655         9.106
H        34.660       241.164         8.268
H        34.277       241.002         9.977
C        35.500       235.380         8.210
C        36.000       236.660         8.490
H        35.960       237.100         9.470
C        36.640       237.140         7.390
C        36.590       236.140         6.400
S        35.670       234.580         6.640
C        37.320       238.520         7.290
H        36.641       239.288         7.674
H        37.515       238.754         6.238
C        38.620       238.550         8.070
H        38.497       237.905         8.946
H        38.768       239.574         8.429
C        39.910       238.120         7.360
H        39.697       237.301         6.666
H        40.631       237.746         8.094
C        40.520       239.310         6.590
H        40.688       240.146         7.277
H        39.814       239.657         5.828
C        41.800       238.890         5.960
H        42.172       239.675         5.294
H        41.648       237.995         5.348
C        42.840       238.600         7.050
H        43.039       239.479         7.671
H        42.515       237.802         7.725
H        43.800       238.286         6.628
C        37.560       236.270         5.420
C        38.410       235.250         5.880
H        38.150       234.590         6.640
C        39.520       235.210         5.010
C        39.340       236.110         3.970
S        37.880       237.100         3.870
C        40.800       234.350         5.280
H        41.673       234.864         4.865
H        40.705       233.390         4.762
C        41.020       234.100         6.790
H        41.281       233.052         6.968
H        40.098       234.298         7.347
C        42.120       235.010         7.230
H        41.881       236.045         6.964
H        43.050       234.752         6.713
C        42.320       234.900         8.730
H        41.342       234.923         9.222
H        42.883       235.772         9.079
C        43.060       233.630         9.160
H        42.340       232.829         9.357
H        43.603       233.814        10.093
C        44.030       233.200         8.070
H        43.518       232.988         7.125
H        44.778       233.971         7.859
H        44.578       232.293         8.344
H        40.109       236.213         3.198
