  502
Data form file: SCF_n_PBE0_6-31G#_CHelpG_P3HT_1112_R20/SCF_n_PBE0_6-31G#_CHelpG_P3HT_1112_R20.log  geo_count:  1
H        96.539       117.508        66.298
C        95.500       117.200        66.140
C        94.920       116.230        66.980
H        95.450       115.660        67.780
C        93.530       116.060        66.790
C        93.240       116.950        65.800
S        94.420       117.830        64.870
C        92.710       115.140        67.780
H        93.178       114.151        67.811
H        91.696       115.015        67.386
C        92.630       115.710        69.220
H        92.800       116.792        69.202
H        93.419       115.269        69.839
C        91.270       115.400        69.800
H        91.156       115.778        70.821
H        91.071       114.324        69.846
C        90.370       116.110        68.820
H        90.527       115.734        67.804
H        90.587       117.183        68.799
C        88.940       115.860        69.270
H        88.832       116.100        70.333
H        88.687       114.801        69.152
C        87.990       116.720        68.440
H        88.202       117.789        68.550
H        88.058       116.492        67.371
H        86.944       116.573        68.730
C        91.860       117.160        65.660
C        91.480       118.450        66.140
H        92.000       119.100        66.790
C        90.240       118.790        65.540
C        89.830       117.630        64.900
S        90.680       116.090        64.970
C        89.510       120.160        65.720
H        88.953       120.423        64.814
H        90.233       120.963        65.895
C        88.590       119.980        66.900
H        89.123       119.417        67.674
H        87.733       119.376        66.584
C        88.050       121.280        67.540
H        87.810       121.134        68.598
H        87.132       121.616        67.047
C        89.200       122.320        67.360
H        89.459       122.459        66.305
H        90.115       122.005        67.872
C        88.600       123.590        67.980
H        87.522       123.627        67.794
H        89.037       124.480        67.515
C        88.880       123.580        69.470
H        88.440       122.708        69.964
H        89.953       123.559        69.686
H        88.474       124.466        69.970
C        88.920       117.920        63.930
C        87.710       117.320        64.310
H        87.560       116.850        65.270
C        86.800       117.430        63.240
C        87.440       117.990        62.110
S        89.010       118.710        62.360
C        85.320       117.010        63.340
H        85.254       115.962        63.030
H        84.758       117.608        62.615
C        84.620       117.140        64.690
H        85.126       116.539        65.452
H        83.589       116.776        64.632
C        84.660       118.610        65.040
H        83.746       119.087        64.671
H        85.504       119.075        64.520
C        84.790       118.890        66.530
H        85.837       118.752        66.818
H        84.200       118.145        67.075
C        84.350       120.260        66.960
H        83.387       120.539        66.521
H        85.065       121.034        66.662
C        84.260       120.130        68.480
H        83.541       119.362        68.784
H        85.222       119.858        68.926
H        83.944       121.065        68.954
C        86.920       117.640        60.890
C        86.940       118.770        60.130
H        87.240       119.820        60.410
C        86.530       118.510        58.800
C        86.030       117.210        58.760
S        86.390       116.120        60.180
C        86.620       119.540        57.610
H        85.923       119.241        56.820
H        87.629       119.514        57.186
C        86.290       120.970        58.080
H        86.762       121.696        57.409
H        86.709       121.135        59.078
C        84.810       121.170        58.100
H        84.297       120.305        58.532
H        84.412       121.302        57.088
C        84.560       122.430        58.950
H        83.497       122.694        58.934
H        85.115       123.280        58.540
C        85.020       122.160        60.440
H        85.039       123.114        60.976
H        86.043       121.769        60.423
C        84.120       121.180        61.190
H        83.087       121.538        61.254
H        84.086       120.200        60.703
H        84.462       121.012        62.217
C        85.500       116.920        57.540
C        86.130       115.770        57.050
H        86.890       115.230        57.560
C        85.570       115.540        55.780
C        84.640       116.480        55.410
S        84.110       117.650        56.650
C        86.130       114.480        54.820
H        86.914       114.937        54.207
H        85.332       114.160        54.142
C        86.680       113.300        55.530
H        86.145       113.120        56.468
H        87.733       113.451        55.789
C        86.530       112.090        54.590
H        87.038       111.215        55.007
H        86.989       112.300        53.618
C        85.000       111.790        54.410
H        84.499       112.690        54.038
H        84.564       111.550        55.385
C        84.760       110.630        53.440
H        85.271       109.736        53.813
H        85.198       110.877        52.467
C        83.260       110.310        53.250
H        82.778       110.030        54.192
H        82.705       111.166        52.852
H        83.103       109.479        52.554
C        84.030       116.200        54.240
C        84.000       117.410        53.600
H        84.690       118.230        53.820
C        82.750       117.450        52.860
C        82.170       116.150        52.960
S        82.850       114.920        54.060
C        82.190       118.760        52.270
H        81.110       118.618        52.157
H        82.622       118.864        51.269
C        82.390       120.090        52.980
H        81.698       120.820        52.547
H        83.408       120.439        52.779
C        82.180       120.080        54.510
H        82.821       119.305        54.942
H        81.141       119.804        54.715
C        82.480       121.420        55.230
H        83.493       121.740        54.965
H        82.463       121.247        56.311
C        81.510       122.520        54.890
H        81.595       122.805        53.836
H        81.713       123.418        55.483
C        80.080       121.990        55.190
H        79.840       121.101        54.598
H        79.958       121.713        56.242
H        79.311       122.737        54.967
C        81.100       116.040        52.100
C        80.020       115.370        52.630
H        80.110       115.010        53.700
C        78.870       115.320        51.750
C        79.260       116.010        50.530
S        80.920       116.560        50.380
C        77.650       114.590        52.260
H        77.118       114.139        51.416
H        76.968       115.307        52.728
C        78.000       113.500        53.270
H        78.541       113.924        54.123
H        78.654       112.749        52.815
C        76.680       112.850        53.740
H        76.055       113.594        54.246
H        76.890       112.057        54.466
C        75.950       112.280        52.530
H        76.569       111.499        52.076
H        75.825       113.072        51.784
C        74.590       111.700        52.870
H        73.914       111.666        52.010
H        74.068       112.264        53.650
C        75.020       110.300        53.340
H        75.542       109.746        52.553
H        75.698       110.346        54.199
H        74.164       109.688        53.644
C        78.320       115.980        49.490
C        78.420       117.220        48.890
H        79.060       118.040        49.180
C        77.610       117.140        47.700
C        76.940       115.930        47.580
S        77.360       114.650        48.770
C        77.610       118.240        46.660
H        77.207       117.837        45.725
H        78.646       118.538        46.467
C        76.820       119.460        47.040
H        77.105       119.792        48.044
H        75.752       119.218        47.071
C        77.060       120.590        46.040
H        78.137       120.784        46.012
H        76.571       121.488        46.432
C        76.590       120.390        44.620
H        76.796       119.369        44.281
H        77.115       121.065        43.936
C        75.080       120.670        44.600
H        74.564       120.027        45.321
H        74.664       120.441        43.613
C        74.880       122.120        44.940
H        75.278       122.368        45.929
H        75.377       122.782        44.223
H        73.821       122.398        44.946
C        75.860       115.980        46.610
C        75.780       114.640        46.130
H        76.500       113.860        46.380
C        74.600       114.480        45.410
C        73.930       115.630        45.250
S        74.590       117.100        46.070
C        74.110       113.180        44.850
H        73.016       113.149        44.878
H        74.474       112.348        45.462
C        74.590       112.990        43.390
H        75.665       112.782        43.380
H        74.431       113.916        42.827
C        73.830       111.830        42.710
H        73.856       110.946        43.355
H        74.333       111.560        41.776
C        72.440       112.240        42.450
H        72.383       113.305        42.200
H        71.812       112.087        43.334
C        71.910       111.390        41.270
H        71.906       110.328        41.535
H        72.559       111.503        40.395
C        70.470       111.870        40.940
H        69.794       111.755        41.793
H        70.445       112.927        40.656
H        70.031       111.308        40.109
C        72.590       115.340        44.980
C        71.940       115.450        46.180
H        72.390       115.810        47.070
C        70.730       114.770        45.990
C        70.560       114.500        44.630
S        71.710       115.100        43.430
C        69.780       114.460        47.140
H        69.189       113.569        46.903
H        69.077       115.289        47.274
C        70.560       114.230        48.440
H        69.846       114.132        49.264
H        71.176       115.113        48.640
C        71.470       112.990        48.430
H        72.116       113.016        47.546
H        70.857       112.085        48.361
C        72.350       112.920        49.710
H        71.721       112.689        50.576
H        72.808       113.897        49.895
C        73.410       111.870        49.540
H        72.946       110.901        49.330
H        73.979       111.759        50.469
C        74.340       112.250        48.410
H        73.809       112.349        47.457
H        74.841       113.206        48.595
H        75.127       111.504        48.258
C        69.460       113.690        44.350
C        68.640       114.130        43.330
H        68.780       115.080        42.850
C        67.780       113.100        42.930
C        67.990       111.910        43.640
S        69.170       112.010        44.920
C        66.670       113.220        41.900
H        65.748       113.535        42.399
H        66.485       112.238        41.453
C        66.990       114.240        40.750
H        68.046       114.102        40.493
H        66.873       115.241        41.178
C        66.200       114.220        39.430
H        66.449       115.082        38.802
H        65.121       114.259        39.610
C        66.610       112.900        38.760
H        66.279       112.073        39.396
H        67.703       112.861        38.714
C        66.060       112.700        37.380
H        66.570       113.352        36.663
H        64.997       112.961        37.347
C        66.260       111.250        37.010
H        67.318       110.967        37.019
H        65.745       110.575        37.702
H        65.880       111.026        36.008
C        67.080       110.970        43.270
C        66.190       110.700        44.290
H        66.020       111.300        45.150
C        65.650       109.410        44.040
C        65.960       109.080        42.760
S        67.090       109.990        41.770
C        64.550       108.730        44.920
H        64.509       107.653        44.726
H        63.560       109.135        44.684
C        64.940       109.020        46.350
H        64.440       109.926        46.708
H        66.018       109.198        46.425
C        64.540       107.820        47.210
H        65.222       106.983        47.025
H        63.534       107.484        46.939
C        64.580       108.210        48.690
H        63.899       109.045        48.882
H        65.584       108.546        48.968
C        64.180       107.000        49.500
H        63.144       106.676        49.357
H        64.309       107.111        50.582
C        65.220       106.100        48.830
H        65.066       106.030        47.748
H        66.240       106.468        48.982
H        65.190       105.078        49.221
C        65.610       107.780        42.440
C        66.520       106.860        42.830
H        67.490       107.050        43.290
C        65.960       105.610        42.740
C        64.740       105.720        42.070
S        64.100       107.320        41.630
C        66.610       104.290        43.250
H        67.698       104.405        43.304
H        66.402       103.475        42.549
C        66.040       103.940        44.660
H        64.945       103.926        44.652
H        66.348       104.680        45.406
C        66.620       102.520        45.000
H        67.660       102.628        45.325
H        66.625       101.910        44.091
C        65.820       101.850        46.060
H        66.305       100.926        46.391
H        64.829       101.572        45.685
C        65.690       102.830        47.230
H        65.282       103.787        46.890
H        66.670       103.039        47.671
C        64.760       102.180        48.260
H        63.768       101.974        47.845
H        65.155       101.226        48.625
H        64.610       102.818        49.137
C        64.230       104.520        41.650
C        63.020       104.330        42.250
H        62.590       104.940        43.010
C        62.490       103.100        41.830
C        63.320       102.500        40.820
S        64.870       103.320        40.460
C        61.260       102.550        42.490
H        60.721       101.921        41.774
H        60.600       103.380        42.764
C        61.530       101.690        43.790
H        62.177       100.849        43.519
H        60.575       101.281        44.137
C        62.200       102.470        44.980
H        63.240       102.701        44.727
H        62.215       101.835        45.872
C        61.430       103.750        45.260
H        60.394       103.522        45.532
H        61.400       104.382        44.366
C        62.130       104.530        46.440
H        63.196       104.678        46.240
H        62.056       103.975        47.381
C        61.370       105.860        46.500
H        61.443       106.417        45.560
H        60.303       105.714        46.700
H        61.754       106.517        47.288
C        62.880       101.360        40.200
C        63.050       101.550        38.830
H        63.550       102.440        38.390
C        62.630       100.450        38.090
C        62.060        99.510        38.920
S        62.110        99.820        40.660
C        62.990       100.140        36.660
H        63.011       101.056        36.060
H        62.241        99.482        36.207
C        64.340        99.480        36.670
H        64.258        98.556        37.252
H        65.034       100.143        37.197
C        64.980        99.120        35.320
H        66.005        98.758        35.453
H        65.034        99.994        34.663
C        64.080        98.030        34.720
H        64.246        97.971        33.639
H        63.029        98.296        34.872
C        64.370        96.690        35.360
H        63.534        96.006        35.181
H        64.463        96.810        36.444
C        65.650        96.090        34.800
H        65.590        95.932        33.718
H        66.517        96.734        34.978
H        65.879        95.118        35.250
C        61.180        98.710        38.260
C        61.610        97.410        38.210
H        62.440        96.950        38.670
C        60.720        96.650        37.410
C        59.880        97.500        36.830
S        59.770        99.160        37.330
C        60.630        95.100        37.160
H        60.153        94.909        36.193
H        60.002        94.637        37.929
C        62.020        94.520        37.190
H        62.616        95.048        37.942
H        62.500        94.681        36.219
C        62.040        93.010        37.510
H        61.852        92.464        36.580
H        61.211        92.797        38.193
C        63.320        92.470        38.130
H        63.450        92.875        39.139
H        64.187        92.788        37.542
C        63.250        90.950        38.180
H        64.247        90.509        38.072
H        62.639        90.560        37.359
C        62.640        90.590        39.530
H        63.244        90.961        40.365
H        61.637        91.011        39.652
H        62.547        89.507        39.662
C        59.520        97.080        35.560
C        60.400        97.720        34.640
H        61.270        98.220        34.990
C        59.860        97.670        33.340
C        58.640        96.910        33.410
S        58.070        96.370        34.980
C        60.500        98.280        32.110
H        59.735        98.524        31.366
H        61.186        97.564        31.645
C        61.270        99.560        32.510
H        61.774        99.973        31.630
H        62.051        99.305        33.234
C        60.340       100.520        33.070
H        59.809       100.092        33.927
H        59.580       100.800        32.333
C        61.110       101.760        33.510
H        61.637       102.177        32.645
H        61.866       101.467        34.246
C        60.220       102.870        34.130
H        59.406       103.098        33.434
H        60.819       103.780        34.240
C        59.660       102.480        35.440
H        59.036       101.583        35.369
H        60.444       102.263        36.173
H        59.034       103.269        35.870
C        58.060        96.600        32.200
C        56.710        96.740        32.310
H        56.240        97.220        33.120
C        56.150        95.940        31.280
C        57.140        95.290        30.560
S        58.790        95.650        30.850
C        54.660        95.900        30.980
H        54.147        95.164        31.608
H        54.471        95.619        29.939
C        54.130        97.340        31.270
H        54.690        97.803        32.090
H        53.078        97.314        31.573
C        54.310        98.130        29.960
H        53.590        97.783        29.211
H        55.310        97.952        29.550
C        54.110        99.580        30.250
H        54.738        99.873        31.098
H        53.070        99.753        30.546
C        54.440       100.430        29.070
H        54.321       101.496        29.290
H        53.790       100.211        28.216
C        55.910       100.090        28.750
H        56.575       100.315        29.590
H        56.044        99.029        28.515
H        56.284       100.655        27.890
C        56.750        94.270        29.690
C        57.620        93.210        29.810
H        58.470        93.250        30.500
C        57.240        92.140        28.950
C        56.180        92.580        28.230
S        55.510        94.210        28.440
C        57.920        90.720        28.830
H        58.992        90.808        29.034
H        57.814        90.347        27.806
C        57.270        89.770        29.810
H        56.270        89.491        29.463
H        57.152        90.252        30.786
C        58.150        88.490        29.960
H        59.134        88.762        30.356
H        58.310        88.034        28.977
C        57.460        87.510        30.890
H        58.119        86.672        31.140
H        56.566        87.084        30.422
C        57.090        88.310        32.150
H        56.328        89.068        31.940
H        57.955        88.839        32.564
C        56.570        87.230        33.110
H        55.702        86.701        32.702
H        57.330        86.472        33.325
H        56.261        87.651        34.072
C        55.790        91.700        27.230
C        56.010        92.380        26.000
H        56.540        93.330        25.940
C        55.390        91.670        24.980
C        54.830        90.560        25.570
S        54.870        90.170        27.310
C        55.400        92.190        23.540
H        54.577        91.736        22.979
H        56.330        91.889        23.046
C        55.270        93.680        23.530
H        56.184        94.139        23.920
H        54.449        93.990        24.185
C        55.010        94.180        22.110
H        54.181        93.612        21.675
H        55.896        93.991        21.495
C        54.670        95.690        22.050
H        55.511        96.259        22.460
H        53.799        95.883        22.685
C        54.370        96.200        20.620
H        55.311        96.355        20.083
H        53.867        97.171        20.676
C        53.520        95.220        19.900
H        54.005        94.242        19.814
H        52.563        95.056        20.407
H        53.287        95.549        18.882
H        54.303        89.823        24.956
