  527
Data form file: SCF_n_PBE0_6-31G#_CHelpG_P3HT_791_R21/SCF_n_PBE0_6-31G#_CHelpG_P3HT_791_R21.log  geo_count:  1
H       109.419        97.469        13.036
C       108.830        98.350        12.760
C       109.400        99.620        12.840
H       110.400        99.780        13.160
C       108.560       100.640        12.300
C       107.410        99.910        11.890
S       107.160        98.200        12.210
C       108.990       102.080        12.150
H       108.678       102.641        13.037
H       108.479       102.518        11.286
C       110.540       102.280        11.960
H       111.081       101.608        12.634
H       110.813       103.305        12.233
C       110.920       102.000        10.520
H       110.450       101.074        10.172
H       112.003       101.864        10.429
C       110.460       103.180         9.670
H       110.672       104.123        10.185
H       109.377       103.134         9.514
C       111.190       103.140         8.320
H       112.271       103.069         8.479
H       111.001       104.064         7.764
C       110.700       101.910         7.480
H       110.890       100.961         7.993
H       109.624       101.953         7.279
H       111.202       101.851         6.508
C       106.710       100.570        10.850
C       105.390       100.230        10.920
H       105.030        99.600        11.630
C       104.760       100.590         9.710
C       105.690       101.160         8.800
S       107.360       101.410         9.420
C       103.320       100.180         9.440
H       103.228        99.908         8.383
H       102.673       101.046         9.616
C       102.790        99.000        10.290
H       102.713        99.310        11.337
H       103.503        98.170        10.246
C       101.420        98.530         9.790
H       101.472        98.189         8.751
H       100.686        99.342         9.822
C       101.030        97.390        10.730
H       101.894        96.769        10.989
H       100.290        96.726        10.271
C       100.460        98.100        11.960
H        99.423        98.412        11.797
H       101.027        99.006        12.197
C       100.570        97.070        13.050
H       100.001        96.164        12.817
H       101.606        96.759        13.218
H       100.193        97.444        14.007
C       105.320       101.430         7.490
C       105.790       100.430         6.650
H       105.930        99.380         6.940
C       106.080       101.020         5.420
C       105.790       102.410         5.490
S       104.920       103.020         6.800
C       106.730       100.400         4.210
H       107.246       101.185         3.648
H       105.948        99.990         3.562
C       107.750        99.270         4.510
H       107.193        98.423         4.925
H       108.431        99.637         5.285
C       108.620        98.730         3.340
H       108.432        99.303         2.426
H       108.365        97.688         3.121
C       110.050        98.860         3.780
H       110.371        99.907         3.770
H       110.720        98.319         3.104
C       110.110        98.290         5.170
H       109.747        97.257         5.183
H       109.468        98.858         5.852
C       111.540        98.360         5.600
H       112.196        97.786         4.937
H       111.917        99.388         5.606
H       111.684        97.963         6.610
C       106.460       103.080         4.450
C       105.840       103.170         3.260
H       104.740       103.190         3.100
C       106.760       103.500         2.200
C       107.950       103.720         2.750
S       108.140       103.460         4.500
C       106.250       103.630         0.740
H       105.519       102.836         0.557
H       107.094       103.463         0.062
C       105.620       104.960         0.420
H       106.411       105.715         0.355
H       104.963       105.244         1.249
C       104.810       105.000        -0.870
H       105.428       104.676        -1.714
H       104.483       106.024        -1.079
C       103.550       104.060        -0.750
H       102.897       104.416         0.054
H       103.868       103.045        -0.490
C       102.760       104.040        -2.110
H       103.426       103.649        -2.886
H       102.509       105.073        -2.374
C       101.450       103.200        -2.120
H       101.637       102.146        -1.891
H       100.726       103.561        -1.382
H       100.951       103.229        -3.094
C       109.050       103.720         1.910
C       109.800       102.680         2.350
H       109.460       101.810         2.850
C       111.170       102.800         2.050
C       111.250       103.820         1.110
S       109.870       104.960         0.980
C       112.280       102.070         2.790
H       113.194       102.144         2.192
H       112.011       101.010         2.848
C       112.570       102.560         4.160
H       113.433       102.034         4.582
H       111.721       102.369         4.824
C       112.860       104.080         4.110
H       111.958       104.579         3.742
H       113.655       104.244         3.375
C       113.280       104.770         5.420
H       112.495       104.668         6.176
H       113.430       105.842         5.258
C       114.560       104.110         5.880
H       114.398       103.036         6.022
H       114.868       104.522         6.847
C       115.690       104.330         4.840
H       115.434       103.911         3.861
H       115.903       105.393         4.684
H       116.630       103.861         5.150
C       112.560       104.010         0.680
C       112.980       105.300         1.000
H       112.260       106.100         1.200
C       114.380       105.360         1.030
C       114.820       104.120         0.520
S       113.690       102.930        -0.150
C       115.340       106.510         1.380
H       115.566       107.081         0.474
H       116.284       106.094         1.749
C       114.750       107.450         2.440
H       114.576       106.931         3.388
H       113.787       107.863         2.123
C       115.820       108.560         2.590
H       116.708       108.191         3.115
H       115.439       109.406         3.171
C       116.130       108.950         1.160
H       115.221       109.183         0.596
H       116.637       108.144         0.619
C       117.030       110.180         1.310
H       116.478       111.011         1.763
H       117.385       110.521         0.332
C       118.250       109.780         2.220
H       117.930       109.449         3.213
H       118.834       108.962         1.787
H       118.940       110.616         2.372
C       116.200       103.980         0.540
C       116.770       103.980        -0.760
H       116.220       103.800        -1.730
C       118.100       103.690        -0.600
C       118.480       103.680         0.690
S       117.320       103.770         1.980
C       118.960       103.150        -1.670
H       120.002       103.331        -1.386
H       118.762       103.725        -2.581
C       118.840       101.680        -2.030
H       118.799       101.076        -1.118
H       119.725       101.361        -2.591
C       117.580       101.430        -2.870
H       116.697       101.440        -2.223
H       117.633       100.438        -3.330
C       117.450       102.490        -3.940
H       118.212       102.335        -4.711
H       117.623       103.480        -3.505
C       116.040       102.460        -4.600
H       115.942       101.570        -5.230
H       115.916       103.329        -5.254
C       115.030       102.460        -3.520
H       115.134       101.591        -2.862
H       115.107       103.349        -2.886
H       114.008       102.439        -3.914
C       119.760       104.150         0.880
C       119.660       105.520         0.660
H       118.760       106.090         0.590
C       120.920       106.050         0.440
C       121.860       105.060         0.530
S       121.340       103.450         1.110
C       121.190       107.540         0.100
H       122.134       107.617        -0.449
H       121.311       108.104         1.031
C       120.090       108.110        -0.700
H       120.253       109.185        -0.832
H       119.145       107.988        -0.160
C       119.950       107.460        -2.090
H       119.683       106.404        -1.980
H       120.909       107.502        -2.617
C       118.860       108.190        -2.930
H       119.199       108.300        -3.965
H       118.695       109.197        -2.533
C       117.560       107.380        -2.880
H       116.733       107.999        -3.243
H       117.339       107.113        -1.841
C       117.640       106.090        -3.730
H       117.835       106.306        -4.786
H       118.439       105.423        -3.389
H       116.709       105.515        -3.691
C       123.170       105.490         0.430
C       123.740       105.720         1.640
H       123.240       105.450         2.580
C       125.070       106.160         1.490
C       125.330       106.260         0.170
S       124.040       105.940        -1.000
C       125.920       106.320         2.720
H       126.939       106.002         2.476
H       125.538       105.643         3.491
C       126.000       107.730         3.330
H       125.017       108.026         3.709
H       126.284       108.453         2.558
C       127.040       107.770         4.490
H       126.750       107.096         5.303
H       127.110       108.774         4.923
C       128.310       107.350         3.840
H       128.595       108.037         3.036
H       128.219       106.357         3.388
C       129.350       107.350         4.950
H       130.060       106.534         4.782
H       128.858       107.157         5.909
C       130.080       108.650         5.010
H       130.605       108.869         4.074
H       129.405       109.491         5.199
H       130.832       108.662         5.806
C       126.450       106.910        -0.060
C       127.580       106.030        -0.060
H       127.580       104.980        -0.010
C       128.730       106.760        -0.120
C       128.400       108.130        -0.130
S       126.710       108.640        -0.200
C       130.170       106.280        -0.030
H       130.462       106.190         1.022
H       130.833       107.020        -0.490
C       130.360       104.920        -0.730
H       130.363       105.020        -1.820
H       129.556       104.219        -0.484
C       131.690       104.480        -0.190
H       131.586       104.163         0.853
H       132.395       105.318        -0.199
C       132.210       103.360        -1.020
H       132.266       103.652        -2.074
H       131.541       102.495        -0.966
C       133.580       103.000        -0.500
H       134.178       103.910        -0.384
H       134.092       102.364        -1.229
C       133.520       102.260         0.860
H       133.040       102.866         1.636
H       132.955       101.324         0.793
H       134.517       102.002         1.231
C       129.520       109.020        -0.020
C       129.360       109.950        -1.080
H       128.850       109.800        -2.050
C       129.810       111.180        -0.530
C       130.450       110.920         0.710
S       130.290       109.360         1.510
C       129.570       112.430        -1.450
H       129.611       112.162        -2.511
H       130.329       113.202        -1.286
C       128.160       112.910        -1.030
H       128.096       112.954         0.062
H       127.410       112.186        -1.365
C       127.910       114.230        -1.620
H       127.909       114.135        -2.711
H       128.735       114.899        -1.353
C       126.610       114.890        -1.200
H       126.428       115.806        -1.773
H       126.636       115.179        -0.144
C       125.540       113.860        -1.460
H       125.869       112.904        -1.039
H       125.442       113.727        -2.542
C       124.150       114.180        -0.890
H       124.169       114.292         0.199
H       123.744       115.112        -1.298
H       123.423       113.392        -1.115
C       130.770       112.090         1.310
C       129.760       112.790         1.910
H       128.670       112.500         1.850
C       130.280       113.820         2.650
C       131.690       113.630         2.640
S       132.490       112.500         1.560
C       129.360       114.940         3.330
H       129.942       115.862         3.429
H       129.089       114.610         4.338
C       128.100       115.210         2.520
H       127.879       114.353         1.875
H       128.254       116.075         1.866
C       126.930       115.470         3.460
H       127.086       116.349         4.094
H       126.736       114.629         4.134
C       125.780       115.680         2.440
H       125.516       114.716         1.992
H       126.131       116.330         1.632
C       124.560       116.290         3.090
H       124.801       117.199         3.650
H       124.079       115.603         3.795
C       123.630       116.600         1.870
H       124.098       117.293         1.163
H       123.377       115.696         1.307
H       122.684       117.056         2.181
C       132.290       114.130         3.780
C       133.680       113.980         3.680
H       134.280       114.270         2.840
C       134.240       113.580         4.890
C       133.210       113.410         5.820
S       131.620       114.120         5.430
C       135.710       113.560         5.210
H       136.276       113.013         4.449
H       135.903       113.059         6.165
C       136.120       115.010         5.260
H       135.429       115.595         5.876
H       136.108       115.459         4.261
C       137.500       115.010         5.840
H       138.180       114.468         5.175
H       137.498       114.480         6.798
C       138.000       116.410         6.040
H       137.395       116.902         6.808
H       137.868       116.975         5.111
C       139.460       116.470         6.450
H       139.795       117.512         6.494
H       140.081       115.968         5.701
C       139.610       115.820         7.770
H       139.010       116.315         8.541
H       139.296       114.771         7.749
H       140.648       115.833         8.118
C       133.210       112.180         6.400
C       133.510       112.040         7.770
H       134.050       112.820         8.250
C       133.150       110.850         8.280
C       132.470       110.050         7.260
S       132.450       110.780         5.620
C       133.410       110.570         9.750
H       132.562       110.025        10.178
H       133.503       111.515        10.295
C       134.730       109.720         9.970
H       135.596       110.379         9.844
H       134.785       108.951         9.192
C       134.780       109.070        11.330
H       134.657       109.809        12.129
H       135.744       108.580        11.501
C       133.650       108.070        11.330
H       133.700       107.387        10.476
H       132.668       108.553        11.286
C       133.870       107.340        12.660
H       134.881       106.923        12.720
H       133.176       106.500        12.770
C       133.640       108.390        13.710
H       134.335       109.230        13.609
H       132.629       108.807        13.659
H       133.768       107.993        14.722
C       131.860       108.920         7.680
C       130.670       109.230         8.340
H       130.320       110.240         8.640
C       130.050       108.030         8.790
C       130.860       106.970         8.420
S       132.370       107.260         7.480
C       128.780       108.030         9.640
H       128.787       108.902        10.302
H       128.773       107.142        10.281
C       127.590       108.050         8.790
H       127.731       107.396         7.923
H       127.414       109.061         8.407
C       126.330       107.580         9.580
H       126.079       108.336        10.332
H       126.568       106.652        10.110
C       125.090       107.340         8.670
H       124.802       108.249         8.132
H       124.217       107.027         9.252
C       125.570       106.240         7.720
H       125.757       105.332         8.303
H       126.524       106.550         7.280
C       124.600       105.910         6.600
H       123.634       105.565         6.983
H       124.397       106.778         5.964
H       124.982       105.120         5.946
C       130.400       105.720         8.820
C       131.450       104.980         9.320
H       132.440       105.340         9.630
C       131.070       103.590         9.410
C       129.730       103.430         9.080
S       128.880       104.880         8.560
C       131.930       102.380         9.750
H       132.369       101.969         8.835
H       131.307       101.595        10.190
C       133.030       102.770        10.720
H       133.513       103.690        10.375
H       133.795       101.987        10.741
C       132.490       102.990        12.160
H       131.940       102.109        12.508
H       131.797       103.837        12.190
C       133.730       103.260        13.070
H       134.065       104.292        12.922
H       134.550       102.604        12.761
C       133.410       103.030        14.520
H       133.343       101.953        14.705
H       132.429       103.462        14.743
C       134.440       103.630        15.480
H       135.440       103.211        15.323
H       134.529       104.715        15.361
H       134.180       103.446        16.528
C       129.120       102.210         9.060
C       128.520       101.970         7.790
H       128.760       102.510         6.880
C       127.390       101.090         7.930
C       127.520       100.450         9.190
S       128.690       101.080        10.350
C       126.330       100.920         6.920
H       125.917        99.910         7.014
H       126.780       100.998         5.925
C       125.170       101.910         6.990
H       125.536       102.934         6.864
H       124.688       101.861         7.972
C       124.190       101.560         5.900
H       124.720       101.267         4.988
H       123.571       102.427         5.648
C       123.300       100.400         6.390
H       123.930        99.506         6.438
H       122.537       100.230         5.623
C       122.590       100.530         7.720
H       121.889       101.371         7.715
H       123.300       100.715         8.532
C       121.860        99.210         7.920
H       121.137        99.016         7.121
H       122.549        98.359         7.938
H       121.303        99.188         8.863
C       126.800        99.230         9.350
C       127.740        98.180         9.200
H       128.780        98.320         9.080
C       127.040        96.960         9.270
C       125.640        97.170         9.330
S       125.080        98.790         9.690
C       127.780        95.660         9.460
H       128.762        95.702         8.976
H       127.229        94.833         8.999
C       127.950        95.400        10.980
H       126.980        95.099        11.388
H       128.233        96.342        11.461
C       128.980        94.340        11.340
H       128.775        93.410        10.799
H       128.928        94.106        12.409
C       130.350        94.870        10.980
H       130.440        95.929        11.244
H       130.527        94.792         9.902
C       131.400        94.030        11.760
H       131.235        92.956        11.626
H       131.348        94.221        12.837
C       132.680        94.490        11.160
H       132.721        94.298        10.083
H       132.834        95.566        11.296
H       133.545        93.987        11.605
C       124.930        96.130         8.850
C       124.370        96.480         7.620
H       124.310        97.530         7.260
C       123.720        95.360         7.100
C       123.660        94.310         8.070
S       124.610        94.540         9.560
C       123.490        95.240         5.650
H       122.681        94.529         5.452
H       124.386        94.851         5.155
C       123.130        96.600         5.060
H       124.040        97.208         5.058
H       122.409        97.071         5.737
C       122.510        96.700         3.590
H       121.478        96.335         3.576
H       123.076        96.082         2.885
C       122.600        98.170         3.260
H       123.639        98.502         3.168
H       122.142        98.789         4.038
C       121.860        98.280         1.950
H       120.869        97.822         2.037
H       122.398        97.737         1.166
C       121.720        99.750         1.560
H       121.167       100.323         2.312
H       122.693       100.238         1.442
H       121.187        99.874         0.612
C       123.040        93.190         7.540
C       123.850        92.070         7.330
H       124.950        92.070         7.310
C       123.000        91.010         7.020
C       121.700        91.440         6.840
S       121.270        93.110         7.350
C       123.610        89.690         6.810
H       124.544        89.768         6.243
H       122.946        89.030         6.241
C       123.890        89.080         8.220
H       124.670        89.663         8.720
H       124.267        88.058         8.105
C       122.620        89.070         9.080
H       121.991        88.224         8.785
H       122.049        89.985         8.890
C       122.930        88.970        10.580
H       123.613        88.139        10.785
H       122.018        88.785        11.158
C       123.570        90.320        10.980
H       124.456        90.489        10.359
H       123.909        90.256        12.019
C       122.630        91.460        10.830
H       122.283        91.572         9.798
H       121.738        91.340        11.453
H       123.091        92.412        11.115
C       120.730        90.550         6.270
C       119.700        91.340         5.590
H       119.830        92.400         5.330
C       118.610        90.490         5.430
C       118.830        89.200         5.790
S       120.420        88.840         6.580
C       117.240        90.900         4.920
H       116.478        90.205         5.287
H       117.216        90.853         3.826
C       116.940        92.300         5.390
H       116.136        92.739         4.790
H       117.819        92.941         5.263
C       116.540        92.240         6.840
H       116.772        91.243         7.228
H       115.456        92.377         6.912
C       117.220        93.280         7.740
H       117.000        94.302         7.414
H       118.310        93.175         7.726
C       116.640        92.980         9.090
H       115.692        93.517         9.203
H       117.321        93.347         9.865
C       116.380        91.460         9.340
H       115.678        91.039         8.613
H       117.300        90.870         9.272
H       115.957        91.274        10.333
H       118.064        88.441         5.598
