  552
Data form file: SCF_n_PBE0_6-31G#_CHelpG_P3HT_127_R22/SCF_n_PBE0_6-31G#_CHelpG_P3HT_127_R22.log  geo_count:  1
H        84.017        47.452        73.801
C        83.670        47.770        74.790
C        82.590        48.650        74.900
H        82.070        49.000        74.060
C        82.290        48.800        76.240
C        83.260        48.170        77.010
S        84.500        47.150        76.230
C        81.210        49.760        76.740
H        81.029        49.570        77.803
H        80.276        49.553        76.208
C        81.580        51.210        76.550
H        80.686        51.810        76.352
H        82.247        51.325        75.689
C        82.300        51.750        77.850
H        82.951        50.973        78.263
H        81.554        51.991        78.614
C        83.120        53.000        77.490
H        83.911        52.718        76.787
H        83.605        53.382        78.394
C        82.270        54.110        76.870
H        81.522        54.459        77.589
H        81.724        53.727        76.001
C        83.180        55.230        76.470
H        83.727        55.640        77.326
H        83.929        54.909        75.739
H        82.631        56.062        76.017
C        82.990        48.300        78.340
C        84.000        49.030        79.050
H        84.880        49.620        78.590
C        83.640        49.120        80.420
C        82.410        48.410        80.690
S        81.850        47.420        79.340
C        84.530        49.860        81.430
H        85.306        49.164        81.764
H        83.912        50.111        82.298
C        85.220        51.140        80.960
H        84.622        51.554        80.141
H        86.194        50.855        80.548
C        85.450        52.240        81.960
H        85.682        53.177        81.442
H        86.309        51.998        82.595
C        84.190        52.440        82.850
H        84.475        53.032        83.726
H        83.859        51.459        83.207
C        83.020        53.130        82.150
H        82.687        52.501        81.318
H        83.370        54.079        81.731
C        81.770        53.430        83.070
H        81.347        52.515        83.498
H        82.026        54.084        83.910
H        80.964        53.924        82.518
C        81.710        48.640        81.910
C        80.650        47.740        81.930
H        80.400        46.920        81.270
C        79.790        48.020        82.980
C        80.390        48.920        83.810
S        81.920        49.640        83.400
C        78.430        47.300        83.190
H        78.215        47.160        84.255
H        78.431        46.307        82.729
C        77.370        48.230        82.520
H        77.661        48.401        81.478
H        77.382        49.200        83.028
C        75.960        47.660        82.560
H        75.605        47.524        83.587
H        75.904        46.680        82.075
C        75.130        48.710        81.810
H        75.693        49.056        80.937
H        74.971        49.575        82.462
C        73.770        48.170        81.350
H        73.937        47.319        80.682
H        73.261        48.947        80.770
C        72.860        47.730        82.490
H        73.310        46.931        83.089
H        72.636        48.553        83.177
H        71.900        47.351        82.125
C        79.790        49.130        85.010
C        79.210        50.380        84.920
H        79.340        51.070        84.140
C        78.520        50.550        86.120
C        78.780        49.530        87.000
S        79.610        48.130        86.400
C        77.510        51.690        86.290
H        76.814        51.515        87.117
H        76.894        51.843        85.398
C        78.460        52.820        86.550
H        79.014        53.059        85.636
H        79.195        52.522        87.305
C        77.710        54.060        87.030
H        77.163        54.502        86.191
H        78.430        54.808        87.378
C        76.740        53.730        88.150
H        77.279        53.368        89.032
H        76.058        52.929        87.845
C        75.990        54.980        88.460
H        75.614        55.433        87.537
H        76.655        55.713        88.929
C        74.830        54.670        89.390
H        74.128        53.956        88.946
H        75.168        54.236        90.337
H        74.254        55.567        89.641
C        78.100        49.630        88.190
C        79.040        49.910        89.170
H        80.080        49.770        89.120
C        78.350        50.230        90.360
C        76.980        49.930        90.150
S        76.430        49.460        88.550
C        78.820        50.860        91.690
H        78.175        50.558        92.522
H        78.786        51.954        91.645
C        80.230        50.350        91.860
H        80.900        50.895        91.187
H        80.275        49.294        91.573
C        80.690        50.510        93.270
H        80.963        51.548        93.488
H        81.576        49.900        93.475
C        79.500        50.060        94.150
H        78.605        50.508        93.706
H        79.656        50.517        95.133
C        79.160        48.580        94.410
H        78.931        48.076        93.466
H        78.270        48.505        95.043
C        80.360        47.890        95.100
H        81.265        47.930        94.485
H        80.607        48.358        96.059
H        80.163        46.833        95.305
C        76.100        49.860        91.230
C        75.000        50.660        90.910
H        75.110        51.510        90.170
C        73.910        50.400        91.760
C        74.250        49.290        92.520
S        75.960        48.850        92.680
C        72.510        51.070        91.750
H        72.459        51.876        92.489
H        71.730        50.347        92.010
C        72.310        51.610        90.330
H        72.378        50.803        89.592
H        73.084        52.342        90.078
C        70.900        52.270        90.290
H        70.798        53.008        91.093
H        70.119        51.518        90.444
C        70.760        52.930        88.920
H        70.495        53.982        89.068
H        69.928        52.454        88.390
C        71.990        52.860        88.050
H        72.117        51.858        87.626
H        72.895        53.070        88.629
C        71.770        53.870        87.000
H        70.870        53.661        86.412
H        71.650        54.875        87.417
H        72.606        53.917        86.294
C        73.080        48.530        92.730
C        73.000        47.570        91.730
H        73.940        47.300        91.180
C        71.700        47.210        91.460
C        70.990        47.660        92.550
S        71.690        48.650        93.820
C        71.280        46.560        90.170
H        70.319        46.963        89.834
H        71.143        45.483        90.312
C        72.350        46.820        89.130
H        72.287        46.043        88.361
H        73.331        46.731        89.608
C        72.270        48.190        88.440
H        72.530        48.965        89.168
H        71.234        48.369        88.134
C        73.150        48.290        87.280
H        72.880        47.513        86.558
H        74.181        48.098        87.595
C        73.120        49.650        86.550
H        73.278        50.462        87.268
H        72.138        49.806        86.092
C        74.220        49.690        85.460
H        75.221        49.556        85.883
H        74.084        48.903        84.711
H        74.228        50.643        84.920
C        69.630        47.570        92.520
C        69.020        48.810        92.770
H        69.550        49.750        92.880
C        67.620        48.710        92.860
C        67.220        47.410        92.530
S        68.550        46.220        92.280
C        66.670        49.860        93.180
H        66.587        49.981        94.265
H        65.669        49.630        92.801
C        67.170        51.180        92.550
H        67.468        50.977        91.516
H        68.063        51.504        93.094
C        66.160        52.320        92.550
H        65.767        52.503        93.555
H        65.300        52.090        91.912
C        66.930        53.520        92.030
H        67.895        53.654        92.530
H        66.384        54.461        92.156
C        67.080        53.120        90.560
H        66.112        52.825        90.142
H        67.749        52.258        90.463
C        67.650        54.330        89.790
H        66.993        55.204        89.855
H        68.627        54.638        90.176
H        67.784        54.113        88.725
C        65.870        47.240        92.390
C        65.440        47.570        91.140
H        66.060        47.940        90.340
C        64.070        47.750        91.170
C        63.600        47.380        92.460
S        64.720        46.720        93.640
C        63.220        48.260        90.020
H        62.176        47.952        90.135
H        63.566        47.853        89.064
C        63.350        49.770        90.050
H        64.304        50.121        89.644
H        63.282        50.181        91.063
C        62.190        50.110        89.200
H        62.180        49.497        88.292
H        62.239        51.154        88.874
C        60.960        49.870        90.010
H        60.997        50.477        90.921
H        60.927        48.821        90.324
C        59.720        50.200        89.240
H        58.825        49.998        89.838
H        59.647        49.585        88.337
C        59.780        51.700        88.860
H        59.834        52.345        89.743
H        60.655        51.932        88.244
H        58.899        52.015        88.291
C        62.230        47.680        92.610
C        62.130        48.880        93.310
H        62.860        49.710        93.300
C        60.880        48.950        93.910
C        60.100        47.940        93.320
S        60.790        46.750        92.200
C        60.460        50.060        94.890
H        59.682        49.668        95.553
H        60.017        50.884        94.320
C        61.590        50.570        95.700
H        61.277        51.463        96.251
H        62.410        50.875        95.041
C        62.060        49.540        96.640
H        62.213        48.587        96.124
H        61.314        49.361        97.422
C        63.360        50.010        97.260
H        63.816        49.225        97.873
H        63.199        50.869        97.920
C        64.230        50.370        96.090
H        63.765        51.160        95.492
H        64.365        49.507        95.430
C        65.580        50.840        96.630
H        65.479        51.715        97.281
H        66.079        50.063        97.218
H        66.268        51.120        95.826
C        58.710        48.080        93.690
C        58.020        48.300        92.590
H        58.450        48.240        91.630
C        56.650        48.590        92.910
C        56.560        48.700        94.320
S        57.940        48.140        95.290
C        55.600        48.580        91.770
H        54.659        49.003        92.138
H        55.401        47.547        91.467
C        56.080        49.400        90.520
H        57.119        49.150        90.282
H        56.046        50.473        90.738
C        55.160        49.060        89.340
H        55.426        48.081        88.928
H        55.290        49.796        88.540
C        53.690        49.050        89.810
H        53.501        49.854        90.528
H        53.445        48.110        90.315
C        52.880        49.230        88.550
H        53.122        48.462        87.808
H        53.085        50.198        88.080
C        51.430        49.130        88.990
H        51.207        48.163        89.452
H        51.170        49.900        89.724
H        50.737        49.247        88.150
C        55.340        49.130        94.830
C        55.110        48.560        96.030
H        55.840        47.950        96.620
C        53.880        48.900        96.600
C        53.230        49.790        95.740
S        54.010        50.140        94.160
C        53.340        48.530        97.970
H        52.867        47.544        97.908
H        52.562        49.249        98.248
C        54.390        48.500        99.060
H        55.231        47.848        98.803
H        53.986        48.135       100.010
C        54.840        49.990        99.170
H        55.071        50.378        98.172
H        55.760        50.052        99.761
C        53.760        50.780        99.800
H        53.637        50.497       100.850
H        52.802        50.587        99.306
C        54.120        52.230        99.690
H        54.871        52.508       100.437
H        53.248        52.868        99.866
C        54.660        52.430        98.280
H        55.543        51.812        98.087
H        53.919        52.171        97.516
H        54.954        53.469        98.097
C        51.900        50.100        96.040
C        51.010        49.090        95.680
H        51.240        48.220        95.120
C        49.790        49.350        96.310
C        49.870        50.490        97.090
S        51.320        51.520        96.950
C        48.680        48.340        96.160
H        48.050        48.351        97.056
H        49.107        47.335        96.078
C        47.830        48.630        94.940
H        48.458        48.826        94.064
H        47.212        49.520        95.097
C        46.940        47.390        94.700
H        47.572        46.497        94.649
H        46.435        47.491        93.734
C        45.880        47.200        95.810
H        45.209        48.065        95.850
H        46.362        47.125        96.790
C        45.130        45.950        95.480
H        44.403        45.744        96.273
H        45.828        45.106        95.453
C        44.400        46.030        94.150
H        43.666        46.842        94.133
H        45.086        46.206        93.315
H        43.856        45.107        93.924
C        48.990        50.690        98.130
C        49.740        50.650        99.340
H        50.840        50.470        99.430
C        48.920        51.200       100.300
C        47.590        51.100        99.850
S        47.240        51.090        98.180
C        49.490        51.850       101.560
H        49.740        51.062       102.278
H        48.713        52.473       102.014
C        50.720        52.700       101.320
H        51.528        52.126       100.856
H        51.121        53.109       102.253
C        50.210        53.810       100.390
H        49.748        54.599       100.992
H        49.433        53.401        99.736
C        51.320        54.410        99.540
H        51.994        53.645        99.140
H        51.943        55.108       100.108
C        50.530        55.110        98.440
H        51.162        55.289        97.564
H        50.176        56.089        98.781
C        49.380        54.210        98.100
H        49.717        53.230        97.746
H        48.731        54.030        98.963
H        48.748        54.632        97.311
C        46.640        51.280       100.840
C        45.730        52.200       100.360
H        46.050        52.940        99.640
C        44.570        52.170       101.140
C        44.710        51.140       102.050
S        46.210        50.270       102.210
C        43.400        53.090       100.920
H        42.887        53.242       101.875
H        42.690        52.602       100.243
C        43.770        54.430       100.350
H        44.003        54.373        99.282
H        44.651        54.857       100.840
C        42.510        55.280       100.610
H        42.275        55.259       101.679
H        41.660        54.835       100.082
C        42.700        56.700       100.160
H        41.724        57.171        99.999
H        43.230        56.717        99.202
C        43.490        57.510       101.190
H        43.646        58.542       100.858
H        44.482        57.081       101.365
C        42.620        57.450       102.450
H        41.628        57.883       102.284
H        42.464        56.422       102.792
H        43.069        57.997       103.285
C        43.620        50.830       102.910
C        43.950        50.840       104.240
H        44.920        51.170       104.710
C        42.930        50.390       105.030
C        41.840        50.100       104.230
S        41.970        50.390       102.490
C        42.920        50.220       106.580
H        43.209        49.195       106.834
H        41.903        50.377       106.955
C        43.880        51.210       107.260
H        44.021        52.096       106.632
H        44.866        50.753       107.393
C        43.280        51.580       108.580
H        42.821        50.710       109.061
H        42.489        52.327       108.457
C        44.410        52.130       109.430
H        44.908        51.326       109.982
H        44.029        52.839       110.173
C        45.390        52.820       108.480
H        44.995        53.775       108.119
H        45.586        52.210       107.592
C        46.590        52.990       109.320
H        46.387        53.600       110.206
H        46.980        52.031       109.678
H        47.405        53.480       108.777
C        40.730        49.600       104.980
C        39.650        50.490       104.990
H        39.750        51.510       104.500
C        38.460        50.060       105.720
C        38.770        48.820       106.260
S        40.450        48.090       105.920
C        37.120        50.810       105.900
H        36.665        50.551       106.862
H        36.412        50.517       105.118
C        37.400        52.330       105.830
H        37.700        52.611       104.815
H        38.227        52.591       106.498
C        36.120        53.110       106.240
H        35.438        53.185       105.386
H        36.383        54.131       106.536
C        35.440        52.380       107.400
H        36.156        52.223       108.213
H        35.095        51.395       107.070
C        34.200        53.210       107.950
H        34.559        53.979       108.642
H        33.542        52.543       108.517
C        33.450        53.840       106.810
H        34.081        54.524       106.232
H        33.067        53.092       106.108
H        32.588        54.420       107.157
C        37.620        48.110       106.730
C        37.720        48.000       108.110
H        38.590        48.320       108.690
C        36.520        47.440       108.510
C        35.800        46.950       107.340
S        36.310        47.540       105.740
C        36.020        47.380       109.980
H        36.422        46.497       110.488
H        34.929        47.295       110.013
C        36.490        48.640       110.620
H        36.280        49.503       109.980
H        37.573        48.615       110.779
C        35.760        48.800       111.980
H        36.149        48.100       112.727
H        34.688        48.596       111.884
C        36.030        50.240       112.360
H        37.112        50.372       112.466
H        35.575        50.431       113.337
C        35.510        51.330       111.370
H        35.725        51.021       110.342
H        36.046        52.268       111.546
C        34.020        51.540       111.550
H        33.451        50.623       111.364
H        33.771        51.867       112.565
H        33.628        52.301       110.867
C        34.980        45.860       107.630
C        33.970        45.780       106.670
H        33.850        46.450       105.810
C        33.010        44.800       106.960
C        33.500        44.000       107.990
S        34.900        44.590       108.910
C        31.720        44.630       106.240
H        31.002        44.151       106.914
H        31.876        43.953       105.393
C        31.090        45.920       105.710
H        31.842        46.465       105.130
H        30.818        46.553       106.561
C        29.910        45.680       104.880
H        29.061        45.360       105.493
H        30.097        44.876       104.160
C        29.590        46.950       104.170
H        30.330        47.166       103.392
H        29.593        47.801       104.860
C        28.170        46.780       103.530
H        27.610        46.004       104.062
H        28.265        46.453       102.489
C        27.450        48.110       103.610
H        27.333        48.452       104.644
H        27.987        48.900       103.074
H        26.445        48.059       103.177
C        32.620        43.000       108.380
C        32.230        43.280       109.670
H        32.560        44.140       110.270
C        31.360        42.240       110.070
C        31.230        41.300       109.060
S        32.080        41.570       107.580
C        30.510        42.180       111.370
H        30.132        41.160       111.493
H        29.644        42.840       111.251
C        31.270        42.580       112.620
H        31.806        43.515       112.425
H        32.017        41.811       112.842
C        30.380        42.780       113.890
H        30.196        41.794       114.329
H        29.415        43.180       113.563
C        30.940        43.670       114.930
H        31.995        43.420       115.086
H        30.422        43.486       115.877
C        30.830        45.120       114.590
H        31.179        45.300       113.568
H        31.465        45.717       115.253
C        29.390        45.540       114.730
H        28.731        44.974       114.064
H        29.016        45.390       115.748
H        29.247        46.599       114.492
C        30.470        40.190       109.360
C        31.100        39.190       110.170
H        32.120        39.220       110.610
C        30.150        38.200       110.490
C        29.080        38.330       109.630
S        29.000        39.680       108.580
C        30.260        37.270       111.730
H        30.671        36.303       111.422
H        29.259        37.088       112.135
C        31.160        37.880       112.840
H        30.740        38.823       113.206
H        32.158        38.105       112.450
C        31.220        36.840       113.940
H        31.299        37.311       114.925
H        32.095        36.192       113.823
C        29.900        36.000       113.840
H        29.696        35.757       112.792
H        29.057        36.594       114.207
C        30.040        34.720       114.660
H        30.512        34.919       115.627
H        30.667        33.986       114.144
C        28.600        34.180       114.850
H        27.960        34.896       115.376
H        28.114        33.963       113.893
H        28.583        33.253       115.432
C        28.180        37.290       109.470
C        28.710        36.030       109.440
H        29.740        35.850       109.560
C        27.730        35.100       109.280
C        26.590        35.710       108.830
S        26.470        37.470       108.980
C        27.740        33.620       109.610
H        28.185        33.025       108.806
H        26.729        33.230       109.770
C        28.590        33.540       110.910
H        28.282        34.330       111.603
H        29.646        33.709       110.673
C        28.410        32.170       111.560
H        28.921        32.139       112.528
H        28.859        31.391       110.935
C        26.920        31.910       111.740
H        26.405        32.065       110.786
H        26.507        32.634       112.451
C        26.670        30.520       112.230
H        27.143        30.385       113.208
H        27.125        29.800       111.541
C        25.120        30.170       112.370
H        24.611        30.837       113.074
H        24.592        30.255       111.414
H        24.961        29.148       112.730
H        25.786        35.109       108.393
