  577
Data form file: SCF_n_PBE0_6-31G#_CHelpG_P3HT_2363_R23/SCF_n_PBE0_6-31G#_CHelpG_P3HT_2363_R23.log  geo_count:  1
H       123.642       168.878        18.511
C       122.890       169.400        17.910
C       122.910       170.750        17.830
H       123.560       171.320        18.410
C       121.930       171.150        16.880
C       121.230       170.060        16.380
S       121.670       168.480        17.060
C       121.730       172.570        16.450
H       121.192       172.591        15.497
H       122.704       173.041        16.279
C       120.970       173.350        17.470
H       121.511       173.309        18.421
H       119.998       172.872        17.628
C       120.740       174.800        17.110
H       119.881       175.167        17.682
H       120.475       174.856        16.049
C       121.910       175.720        17.360
H       122.809       175.345        16.860
H       122.138       175.771        18.430
C       121.540       177.090        16.830
H       121.666       177.114        15.743
H       122.214       177.845        17.249
C       120.110       177.420        17.190
H       119.404       176.697        16.770
H       119.951       177.426        18.273
H       119.811       178.406        16.820
C       120.270       170.370        15.440
C       120.700       170.310        14.140
H       121.710       170.080        13.930
C       119.740       170.710        13.250
C       118.590       171.080        13.940
S       118.680       171.170        15.710
C       119.950       170.450        11.780
H       121.013       170.485        11.521
H       119.451       171.210        11.170
C       119.370       169.070        11.510
H       118.825       169.082        10.560
H       118.645       168.819        12.291
C       120.440       168.070        11.470
H       121.011       168.090        12.404
H       121.143       168.301        10.663
C       119.860       166.700        11.260
H       120.621       165.917        11.342
H       119.408       166.595        10.268
C       118.810       166.580        12.370
H       118.148       167.452        12.360
H       119.297       166.560        13.351
C       118.030       165.320        12.140
H       117.522       165.323        11.170
H       118.670       164.432        12.160
H       117.258       165.171        12.902
C       117.700       171.760        13.140
C       117.930       173.120        13.260
H       118.670       173.500        13.990
C       117.070       173.850        12.410
C       116.320       172.980        11.680
S       116.590       171.220        11.840
C       117.000       175.360        12.360
H       115.974       175.647        12.108
H       117.649       175.706        11.549
C       117.400       176.110        13.640
H       118.437       175.867        13.893
H       116.771       175.772        14.470
C       117.260       177.650        13.490
H       116.204       177.925        13.404
H       117.754       177.985        12.572
C       117.880       178.280        14.690
H       118.893       177.882        14.808
H       117.308       177.982        15.575
C       117.960       179.780        14.660
H       118.489       180.169        15.537
H       116.963       180.233        14.673
C       118.680       180.080        13.410
H       119.680       179.635        13.396
H       118.151       179.699        12.530
H       118.810       181.157        13.260
C       115.240       173.460        10.990
C       115.350       173.440         9.570
H       116.170       172.910         9.110
C       114.430       174.240         8.920
C       113.660       174.830         9.920
S       113.790       174.300        11.600
C       114.380       174.490         7.400
H       113.976       175.483         7.178
H       113.729       173.763         6.903
C       115.830       174.360         6.910
H       116.132       173.309         6.971
H       116.484       174.926         7.582
C       116.010       174.850         5.510
H       116.126       175.939         5.496
H       115.131       174.610         4.903
C       117.280       174.180         4.880
H       118.149       174.410         5.505
H       117.460       174.619         3.893
C       117.130       172.680         4.750
H       116.290       172.410         4.102
H       116.945       172.204         5.719
C       118.470       172.230         4.150
H       118.660       172.694         3.177
H       119.316       172.489         4.795
H       118.508       171.146         3.997
C       113.080       176.070         9.590
C       113.780       176.990        10.360
H       114.620       176.750        11.100
C       113.210       178.280        10.290
C       112.140       178.230         9.410
S       111.760       176.680         8.580
C       113.750       179.500        11.130
H       113.042       180.334        11.101
H       114.695       179.867        10.717
C       113.930       178.970        12.550
H       114.752       178.249        12.604
H       113.029       178.455        12.899
C       114.230       180.220        13.430
H       115.030       180.032        14.154
H       113.354       180.539        14.004
C       114.640       181.260        12.360
H       113.735       181.692        11.920
H       115.183       180.749        11.558
C       115.510       182.380        12.920
H       116.066       182.861        12.109
H       116.248       181.967        13.616
C       114.640       183.400        13.630
H       113.902       183.849        12.957
H       114.083       182.956        14.461
H       115.230       184.223        14.047
C       111.250       179.350         9.520
C       110.970       179.980         8.250
H       111.170       179.540         7.310
C       110.610       181.340         8.540
C       110.600       181.490         9.950
S       110.630       180.080        10.990
C       110.280       182.420         7.510
H       110.439       183.402         7.969
H       109.218       182.346         7.253
C       111.100       182.340         6.230
H       110.757       181.512         5.601
H       112.155       182.153         6.456
C       110.930       183.670         5.510
H       111.122       184.481         6.220
H       109.891       183.759         5.175
C       111.870       183.890         4.250
H       111.818       183.020         3.587
H       112.912       183.991         4.573
C       111.400       185.150         3.530
H       111.461       186.013         4.201
H       110.351       185.047         3.235
C       112.270       185.370         2.310
H       113.325       185.494         2.576
H       112.216       184.529         1.611
H       111.976       186.265         1.753
C       110.900       182.710        10.490
C       112.230       183.010        10.240
H       113.020       182.370         9.860
C       112.430       184.370        10.610
C       111.270       184.960        11.160
S       109.800       183.970        11.050
C       113.670       185.290        10.430
H       114.594       184.711        10.529
H       113.690       186.062        11.206
C       113.570       185.920         9.040
H       112.565       186.334         8.904
H       113.706       185.142         8.282
C       114.590       187.000         8.840
H       115.598       186.574         8.793
H       114.580       187.701         9.682
C       114.260       187.720         7.550
H       114.898       188.601         7.424
H       113.224       188.074         7.558
C       114.480       186.730         6.400
H       113.630       186.042         6.356
H       115.372       186.132         6.612
C       114.640       187.410         5.070
H       113.759       188.003         4.804
H       115.496       188.093         5.059
H       114.796       186.692         4.258
C       111.370       186.250        11.500
C       110.640       187.000        10.600
H       109.990       186.640         9.820
C       110.820       188.380        10.760
C       111.660       188.600        11.820
S       112.270       187.200        12.650
C       109.990       189.440        10.010
H       110.577       190.361         9.937
H       109.095       189.669        10.598
C       109.580       189.000         8.630
H       108.877       189.731         8.216
H       109.058       188.040         8.702
C       110.780       188.830         7.590
H       111.513       188.098         7.945
H       111.315       189.774         7.443
C       110.070       188.360         6.300
H       110.835       188.080         5.568
H       109.510       189.205         5.887
C       109.100       187.170         6.470
H       108.326       187.384         7.214
H       109.623       186.270         6.810
C       108.520       187.000         5.080
H       107.996       187.900         4.741
H       109.294       186.784         4.336
H       107.799       186.177         5.034
C       112.020       189.920        11.910
C       112.880       190.270        10.870
H       113.450       189.630        10.260
C       112.850       191.700        10.840
C       112.080       192.260        11.840
S       111.240       191.200        12.930
C       113.400       192.550         9.700
H       114.398       192.910         9.973
H       112.759       193.428         9.570
C       113.490       191.800         8.370
H       112.487       191.670         7.951
H       113.902       190.799         8.538
C       114.360       192.560         7.400
H       115.397       192.526         7.749
H       114.055       193.612         7.395
C       114.290       192.020         6.010
H       115.141       191.361         5.808
H       114.340       192.832         5.277
C       113.010       191.280         5.890
H       112.147       191.873         6.210
H       112.994       190.363         6.488
C       112.970       190.980         4.380
H       112.979       191.896         3.780
H       113.828       190.381         4.058
H       112.071       190.423         4.096
C       111.550       193.450        11.470
C       110.290       193.150        10.870
H       109.960       192.150        10.700
C       109.490       194.270        10.830
C       110.290       195.310        11.280
S       111.960       195.110        11.930
C       108.050       194.300        10.440
H       107.802       195.274        10.006
H       107.421       194.182        11.329
C       107.790       193.240         9.490
H       108.166       192.276         9.849
H       108.285       193.428         8.532
C       106.300       193.200         9.320
H       105.964       192.205         9.011
H       105.971       193.905         8.549
C       105.660       193.580        10.710
H       106.115       194.494        11.106
H       105.834       192.786        11.444
C       104.140       193.780        10.460
H       103.609       193.941        11.404
H       103.702       192.888        10.000
C       104.050       194.960         9.570
H       104.485       195.854        10.029
H       104.577       194.801         8.624
H       103.013       195.205         9.318
C       109.970       196.490        10.660
C       110.720       196.630         9.510
H       111.740       196.260         9.350
C       109.980       197.310         8.510
C       108.760       197.620         9.080
S       108.700       197.730        10.820
C       110.530       197.420         7.060
H       111.624       197.455         7.100
H       110.185       198.363         6.623
C       110.100       196.260         6.150
H       110.600       196.378         5.183
H       109.022       196.340         5.977
C       110.400       194.860         6.680
H       109.907       194.707         7.646
H       111.476       194.740         6.843
C       109.900       193.810         5.660
H       110.692       193.580         4.940
H       109.055       194.213         5.091
C       109.490       192.570         6.410
H       108.823       192.840         7.236
H       110.373       192.095         6.851
C       108.790       191.590         5.490
H       107.886       192.019         5.045
H       109.432       191.275         4.661
H       108.483       190.680         6.017
C       107.660       197.420         8.210
C       106.790       198.520         8.220
H       106.990       199.490         8.730
C       105.580       198.220         7.570
C       105.680       197.000         6.970
S       107.060       195.980         7.410
C       104.250       199.060         7.580
H       103.518       198.662         6.869
H       104.430       200.101         7.294
C       103.810       198.920         9.000
H       104.449       199.530         9.648
H       103.922       197.879         9.322
C       102.350       199.350         9.180
H       102.225       200.413         8.949
H       102.028       199.211        10.217
C       101.550       198.490         8.240
H       102.122       198.351         7.317
H       100.628       199.020         7.977
C       101.180       197.120         8.790
H       100.589       197.265         9.700
H       102.103       196.604         9.074
C       100.390       196.200         7.850
H        99.434       196.642         7.552
H       100.941       195.985         6.928
H       100.162       195.236         8.316
C       104.750       196.730         5.980
C       105.510       196.760         4.820
H       106.520       197.100         4.850
C       104.870       195.970         3.850
C       103.600       195.590         4.280
S       103.140       195.980         5.960
C       105.670       195.400         2.660
H       106.363       196.148         2.261
H       105.002       195.118         1.839
C       106.400       194.210         3.210
H       105.781       193.307         3.202
H       106.714       194.363         4.248
C       107.600       194.080         2.270
H       108.441       194.681         2.631
H       107.349       194.445         1.269
C       108.000       192.570         2.210
H       107.128       191.950         1.979
H       108.387       192.236         3.178
C       109.080       192.430         1.110
H       108.571       192.540         0.147
H       109.465       191.407         1.169
C       110.270       193.360         1.100
H       109.970       194.409         1.003
H       110.859       193.282         2.020
H       110.950       193.147         0.269
C       102.680       195.080         3.350
C       101.870       194.200         4.060
H       101.870       193.890         5.100
C       100.910       193.710         3.170
C       101.220       194.140         1.860
S       102.660       195.080         1.550
C        99.650       193.010         3.680
H        99.874       191.971         3.944
H        98.884       192.990         2.898
C        99.100       193.770         4.940
H        99.878       193.865         5.705
H        98.268       193.220         5.392
C        98.640       195.160         4.440
H        98.056       195.072         3.518
H        99.499       195.799         4.212
C        97.810       195.730         5.570
H        97.315       196.651         5.245
H        98.455       195.993         6.415
C        96.780       194.710         6.000
H        97.241       194.072         6.761
H        96.552       194.082         5.133
C        95.440       195.210         6.570
H        95.578       195.819         7.470
H        94.893       195.828         5.850
H        94.777       194.383         6.846
C       100.150       194.080         1.040
C        99.800       195.440         0.770
H       100.350       196.350         1.050
C        98.840       195.490        -0.210
C        98.370       194.210        -0.390
S        99.280       192.790         0.140
C        98.430       196.680        -1.100
H        97.419       196.537        -1.495
H        99.104       196.771        -1.958
C        98.490       197.990        -0.220
H        99.535       198.260        -0.038
H        98.028       197.797         0.754
C        97.770       199.120        -0.930
H        97.753       200.009        -0.291
H        96.729       198.838        -1.117
C        98.460       199.440        -2.240
H        98.094       198.815        -3.062
H        99.543       199.288        -2.183
C        98.110       200.960        -2.480
H        98.568       201.585        -1.706
H        97.028       201.118        -2.419
C        98.640       201.290        -3.840
H        99.722       201.137        -3.907
H        98.184       200.671        -4.619
H        98.450       202.333        -4.112
C        97.160       194.150        -1.110
C        97.300       193.420        -2.300
H        98.180       192.900        -2.520
C        96.080       193.300        -2.920
C        95.150       194.040        -2.110
S        95.650       194.700        -0.540
C        95.780       192.540        -4.170
H        94.753       192.166        -4.098
H        96.446       191.672        -4.204
C        95.910       193.270        -5.500
H        96.936       193.594        -5.702
H        95.285       194.168        -5.548
C        95.440       192.180        -6.480
H        94.364       192.000        -6.384
H        95.943       191.228        -6.282
C        95.790       192.710        -7.890
H        95.594       191.924        -8.627
H        96.861       192.936        -7.932
C        95.000       193.940        -8.240
H        95.137       194.706        -7.470
H        93.931       193.705        -8.266
C        95.450       194.440        -9.550
H        96.514       194.700        -9.547
H        95.307       193.699       -10.343
H        94.905       195.339        -9.855
C        93.790       193.970        -2.500
C        93.250       195.270        -2.410
H        93.870       196.060        -2.130
C        91.920       195.320        -2.880
C        91.570       194.040        -3.280
S        92.740       192.680        -3.110
C        91.120       196.630        -2.980
H        90.464       196.591        -3.856
H        91.809       197.468        -3.131
C        90.320       196.840        -1.750
H        90.986       197.023        -0.900
H        89.746       195.936        -1.521
C        89.360       198.020        -1.900
H        88.838       198.037        -2.862
H        89.849       198.995        -1.799
C        88.430       197.680        -0.710
H        88.965       197.826         0.234
H        88.137       196.626        -0.756
C        87.200       198.570        -0.760
H        86.976       198.829        -1.800
H        87.402       199.505        -0.228
C        85.970       197.880        -0.130
H        85.713       196.949        -0.646
H        86.137       197.624         0.921
H        85.080       198.517        -0.163
C        90.480       194.020        -3.990
C        89.530       193.190        -3.320
H        89.780       192.560        -2.540
C        88.360       193.190        -4.090
C        88.360       194.210        -5.040
S        89.950       194.850        -5.510
C        87.330       192.180        -3.910
H        86.338       192.591        -4.127
H        87.305       191.829        -2.873
C        87.630       191.030        -4.840
H        88.715       190.907        -4.917
H        87.261       191.275        -5.841
C        87.020       189.750        -4.390
H        85.931       189.861        -4.403
H        87.317       189.570        -3.352
C        87.380       188.540        -5.200
H        87.036       187.629        -4.699
H        88.467       188.459        -5.303
C        86.730       188.650        -6.590
H        87.450       189.127        -7.264
H        85.865       189.316        -6.508
C        86.280       187.360        -7.210
H        87.110       186.660        -7.348
H        85.532       186.848        -6.595
H        85.828       187.514        -8.195
C        87.140       194.960        -4.910
C        86.120       194.770        -5.830
H        86.040       193.990        -6.530
C        85.270       195.850        -5.840
C        85.680       196.800        -4.890
S        87.120       196.460        -3.950
C        83.940       195.950        -6.650
H        84.046       195.457        -7.622
H        83.688       196.998        -6.844
C        82.840       195.270        -5.810
H        81.859       195.572        -6.191
H        82.910       195.621        -4.775
C        82.950       193.760        -5.840
H        82.244       193.340        -5.116
H        83.958       193.473        -5.524
C        82.670       193.110        -7.230
H        83.245       193.648        -7.991
H        81.609       193.238        -7.469
C        83.020       191.650        -7.280
H        82.741       191.245        -8.258
H        82.432       191.111        -6.530
C        84.460       191.420        -7.040
H        85.085       191.923        -7.785
H        84.777       191.790        -6.059
H        84.717       190.356        -7.076
C        85.160       198.080        -5.000
C        84.450       198.370        -3.840
H        84.260       197.610        -3.100
C        84.100       199.730        -3.760
C        84.540       200.330        -4.980
S        85.380       199.360        -6.240
C        83.410       200.350        -2.560
H        82.913       201.269        -2.889
H        84.178       200.630        -1.831
C        82.360       199.480        -1.830
H        82.772       198.499        -1.570
H        81.483       199.305        -2.462
C        81.960       200.280        -0.530
H        82.808       200.852        -0.140
H        81.635       199.603         0.267
C        80.800       201.220        -0.990
H        80.075       200.661        -1.591
H        81.192       202.023        -1.622
C        80.140       201.790         0.260
H        80.909       202.268         0.876
H        79.718       200.964         0.842
C        79.020       202.820        -0.010
H        79.388       203.690        -0.564
H        78.202       202.392        -0.598
H        78.579       203.199         0.918
C        84.240       201.720        -5.020
C        82.890       201.960        -5.100
H        82.140       201.100        -5.180
C        82.610       203.320        -5.170
C        83.810       204.040        -5.060
S        85.320       203.130        -4.970
C        81.150       203.790        -5.040
H        80.462       202.992        -5.339
H        80.961       204.642        -5.701
C        80.920       204.180        -3.580
H        81.880       204.272        -3.061
H        80.351       203.397        -3.068
C        80.170       205.490        -3.530
H        80.571       206.168        -4.291
H        80.330       205.963        -2.556
C        78.670       205.310        -3.760
H        78.510       204.520        -4.502
H        78.254       206.235        -4.172
C        77.920       204.950        -2.470
H        77.483       205.852        -2.028
H        78.618       204.533        -1.737
C        76.800       203.920        -2.770
H        76.067       204.307        -3.486
H        77.198       202.993        -3.195
H        76.245       203.642        -1.868
C        83.560       205.380        -5.090
C        83.910       205.960        -3.890
H        84.200       205.430        -2.970
C        83.640       207.330        -3.970
C        82.980       207.600        -5.170
S        82.890       206.400        -6.400
C        83.830       208.270        -2.780
H        82.976       208.209        -2.098
H        83.891       209.311        -3.115
C        85.080       207.840        -2.120
H        85.953       208.125        -2.717
H        85.108       206.751        -2.011
C        85.160       208.510        -0.720
H        84.460       208.022        -0.034
H        84.860       209.561        -0.794
C        86.570       208.400        -0.200
H        86.892       207.354        -0.236
H        86.599       208.714         0.849
C        87.560       209.260        -1.010
H        87.218       210.300        -1.008
H        87.561       208.922        -2.051
C        88.940       209.180        -0.450
H        88.983       209.530         0.587
H        89.326       208.155        -0.455
H        89.650       209.788        -1.020
C        82.460       208.860        -5.170
C        81.090       208.680        -4.970
H        80.600       207.750        -4.900
C        80.420       209.910        -5.060
C        81.400       210.860        -5.380
S        83.100       210.440        -5.640
C        78.940       210.190        -4.760
H        78.411       210.215        -5.718
H        78.880       211.189        -4.315
C        78.140       209.220        -3.820
H        78.638       209.144        -2.848
H        78.119       208.213        -4.250
C        76.750       209.770        -3.670
H        76.323       210.027        -4.645
H        76.753       210.685        -3.069
C        75.870       208.670        -2.970
H        74.947       209.130        -2.600
H        76.411       208.275        -2.104
C        75.530       207.530        -3.930
H        76.416       206.928        -4.159
H        75.152       207.915        -4.883
C        74.470       206.700        -3.210
H        74.838       206.301        -2.259
H        73.574       207.287        -2.982
H        74.144       205.843        -3.808
H        81.125       211.915        -5.479
