  652
Data form file: SCF_n_PBE0_6-31G#_CHelpG_P3HT_780_R26/SCF_n_PBE0_6-31G#_CHelpG_P3HT_780_R26.log  geo_count:  1
H       113.826        25.370       120.704
C       113.830        25.010       119.670
C       113.360        23.680       119.370
H       113.000        22.920       120.040
C       113.370        23.450       117.990
C       113.840        24.570       117.320
S       114.380        25.950       118.300
C       112.800        22.250       117.300
H       113.597        21.525       117.103
H       112.387        22.544       116.330
C       111.730        21.610       118.130
H       110.879        22.289       118.249
H       112.105        21.388       119.134
C       111.280        20.320       117.440
H       112.153        19.832       116.994
H       110.595        20.573       116.624
C       110.600        19.360       118.380
H       109.737        19.839       118.854
H       111.282        19.070       119.186
C       110.180        18.180       117.600
H       109.472        17.559       118.159
H       111.032        17.541       117.347
C       109.510        18.730       116.300
H       108.641        19.359       116.521
H       110.201        19.340       115.709
H       109.160        17.924       115.646
C       114.100        24.440       115.980
C       113.800        25.580       115.250
H       112.970        26.230       115.540
C       114.700        25.730       114.230
C       115.610        24.650       114.240
S       115.180        23.250       115.270
C       114.800        26.840       113.210
H       113.789        27.157       112.933
H       115.277        26.447       112.306
C       115.570        28.030       113.690
H       116.629        27.768       113.787
H       115.214        28.322       114.683
C       115.440        29.250       112.730
H       116.190        30.007       112.979
H       114.458        29.719       112.848
C       115.630        28.750       111.320
H       114.898        27.962       111.115
H       116.625        28.303       111.227
C       115.480        29.850       110.280
H       116.194        30.660       110.461
H       114.477        30.289       110.316
C       115.740        29.200       108.870
H       116.743        28.766       108.797
H       115.030        28.396       108.652
H       115.651        29.930       108.059
C       116.580        24.710       113.220
C       116.270        23.720       112.320
H       115.360        23.130       112.360
C       117.220        23.670       111.280
C       118.120        24.780       111.420
S       118.000        25.710       112.890
C       117.390        22.510       110.280
H       117.713        21.603       110.802
H       118.169        22.750       109.549
C       116.080        22.310       109.620
H       115.833        23.168       108.986
H       115.281        22.231       110.365
C       116.170        21.080       108.820
H       116.876        21.227       107.996
H       115.195        20.858       108.374
C       116.620        19.880       109.650
H       117.545        20.110       110.189
H       116.824        19.020       109.004
C       115.470        19.510       110.690
H       114.545        19.221       110.181
H       115.225        20.358       111.338
C       116.100        18.340       111.470
H       116.347        17.497       110.816
H       117.027        18.634       111.973
H       115.428        17.954       112.244
C       119.100        24.760       110.500
C       118.560        25.240       109.320
H       117.550        25.580       109.170
C       119.440        24.950       108.290
C       120.710        24.850       108.930
S       120.850        24.400       110.670
C       119.030        24.740       106.810
H       119.831        25.078       106.145
H       118.138        25.331       106.578
C       118.730        23.190       106.540
H       117.832        23.090       105.922
H       118.529        22.682       107.489
C       119.930        22.590       105.850
H       119.655        21.601       105.468
H       120.723        22.446       106.591
C       120.480        23.410       104.710
H       121.128        24.218       105.065
H       119.683        23.886       104.129
C       121.230        22.400       103.910
H       121.868        22.926       103.192
H       120.512        21.807       103.334
C       122.090        21.460       104.710
H       122.855        21.993       105.285
H       121.503        20.877       105.427
H       122.616        20.742       104.072
C       121.820        24.860       108.070
C       122.070        26.060       107.320
H       121.380        26.850       107.410
C       123.250        25.910       106.580
C       123.850        24.700       106.870
S       122.890        23.540       107.780
C       123.490        26.840       105.380
H       124.531        26.721       105.064
H       123.364        27.872       105.722
C       122.600        26.630       104.170
H       121.681        27.222       104.233
H       122.295        25.584       104.066
C       123.480        27.080       102.990
H       124.264        26.343       102.787
H       123.983        28.025       103.219
C       122.550        27.230       101.800
H       121.726        26.512       101.860
H       123.084        27.032       100.864
C       121.990        28.690       101.800
H       122.822        29.389       101.663
H       121.540        28.897       102.776
C       120.930        28.940       100.690
H       121.337        28.770        99.688
H       120.062        28.281       100.796
H       120.552        29.967       100.708
C       125.150        24.470       106.290
C       125.360        23.090       106.040
H       124.610        22.340       106.220
C       126.680        22.970       105.500
C       127.320        24.230       105.390
S       126.490        25.640       106.020
C       127.300        21.640       105.180
H       128.138        21.779       104.489
H       126.566        21.001       104.678
C       127.810        20.920       106.460
H       127.042        20.939       107.240
H       128.689        21.434       106.862
C       128.150        19.490       106.070
H       127.233        18.918       105.891
H       128.689        18.994       106.884
C       129.030        19.490       104.780
H       129.825        20.239       104.859
H       128.426        19.748       103.904
C       129.640        18.060       104.620
H       130.540        18.073       103.997
H       128.937        17.373       104.137
C       129.920        17.700       106.030
H       130.618        18.400       106.501
H       129.011        17.699       106.641
H       130.363        16.703       106.118
C       128.380        24.210       104.510
C       128.030        24.900       103.300
H       127.090        25.480       103.140
C       129.010        24.760       102.310
C       129.980        23.880       102.890
S       130.010        23.500       104.630
C       128.890        25.290       100.930
H       129.892        25.545       100.571
H       128.310        26.218       100.967
C       128.250        24.380        99.920
H       128.993        23.649        99.583
H       127.957        24.973        99.047
C       127.040        23.640       100.430
H       127.265        23.259       101.432
H       126.863        22.778        99.779
C       125.700        24.450       100.520
H       125.397        24.758        99.514
H       125.867        25.361       101.105
C       124.600        23.620       101.160
H       124.362        22.742       100.550
H       123.677        24.200       101.263
C       125.130        23.180       102.570
H       126.046        22.584       102.496
H       125.361        24.039       103.208
H       124.398        22.571       103.112
C       130.910        23.350       101.980
C       131.190        21.990       102.270
H       130.570        21.290       102.870
C       132.480        21.700       101.790
C       132.880        22.720       100.880
S       131.970        24.220       100.840
C       133.220        20.490       102.300
H       134.298        20.676       102.261
H       133.014        19.633       101.650
C       132.820        20.140       103.740
H       131.788        19.774       103.750
H       132.852        21.046       104.355
C       133.740        19.080       104.350
H       134.790        19.382       104.277
H       133.644        18.126       103.822
C       133.310        18.940       105.820
H       134.121        18.482       106.396
H       132.446        18.270       105.886
C       132.960        20.290       106.410
H       132.077        20.713       105.919
H       133.780        21.001       106.268
C       132.680        20.090       107.940
H       131.851        19.397       108.118
H       133.550        19.685       108.467
H       132.419        21.031       108.436
C       134.080        22.570       100.320
C       134.070        22.910        98.950
H       133.150        22.980        98.300
C       135.380        22.870        98.440
C       136.260        22.620        99.490
S       135.640        22.480       101.170
C       135.600        23.030        96.940
H       136.638        23.331        96.763
H       134.959        23.837        96.570
C       135.310        21.770        96.160
H       134.323        21.400        96.458
H       136.049        21.013        96.442
C       135.320        21.880        94.590
H       134.891        20.984        94.129
H       136.342        21.971        94.207
C       134.510        23.090        94.340
H       135.007        23.993        94.709
H       133.537        23.036        94.839
C       134.320        23.170        92.780
H       133.929        22.216        92.411
H       135.293        23.327        92.302
C       133.390        24.280        92.450
H       132.405        24.140        92.907
H       133.766        25.248        92.798
H       133.228        24.373        91.371
C       137.580        22.330        99.150
C       138.270        22.590       100.360
H       137.990        23.320       101.170
C       139.290        21.640       100.490
C       139.480        20.950        99.250
S       138.250        21.220        97.980
C       140.070        21.530       101.850
H       140.868        22.279       101.871
H       140.542        20.544       101.918
C       139.130        21.740       103.060
H       138.444        22.572       102.868
H       139.711        21.997       103.952
C       138.330        20.430       103.300
H       137.813        20.138       102.380
H       137.560        20.600       104.060
C       139.270        19.380       103.730
H       139.767        19.694       104.654
H       140.048        19.255       102.969
C       138.600        18.030       103.970
H       139.346        17.230       104.018
H       137.918        17.784       103.149
C       137.830        18.130       105.300
H       138.492        18.361       106.141
H       137.066        18.914       105.274
H       137.316        17.195       105.548
C       140.410        19.930        99.270
C       141.210        19.820        98.120
H       141.530        20.630        97.550
C       141.450        18.450        97.890
C       140.960        17.650        98.920
S       140.220        18.470       100.300
C       141.940        17.850        96.580
H       141.788        18.555        95.756
H       141.373        16.945        96.338
C       143.430        17.520        96.730
H       143.567        16.593        97.297
H       143.950        18.313        97.277
C       144.030        17.370        95.290
H       144.004        18.339        94.781
H       143.412        16.679        94.707
C       145.450        16.860        95.370
H       145.470        15.865        95.827
H       146.053        17.518        96.005
C       146.050        16.800        93.960
H       146.038        17.789        93.489
H       145.467        16.133        93.317
C       147.480        16.290        94.120
H       148.083        16.951        94.752
H       147.512        15.296        94.579
H       147.998        16.212        93.158
C       140.580        16.420        98.440
C       139.210        16.420        98.120
H       138.500        17.230        98.210
C       138.910        15.170        97.630
C       139.900        14.260        98.010
S       141.470        14.870        98.540
C       137.580        14.800        97.020
H       136.823        14.670        97.801
H       137.656        13.848        96.484
C       137.150        15.920        96.050
H       136.954        16.828        96.630
H       136.210        15.626        95.572
C       138.170        16.230        94.980
H       138.570        15.318        94.524
H       139.023        16.786        95.382
C       137.390        17.090        93.920
H       136.593        16.482        93.480
H       138.073        17.371        93.112
C       136.790        18.350        94.550
H       136.115        18.124        95.382
H       136.214        18.946        93.834
C       138.080        19.080        95.020
H       138.653        18.481        95.736
H       138.752        19.304        94.185
H       137.856        20.033        95.511
C       139.250        13.240        98.610
C       138.850        13.620        99.910
H       138.930        14.600       100.320
C       138.340        12.550       100.630
C       138.390        11.490        99.790
S       138.910        11.600        98.150
C       137.860        12.500       102.080
H       137.993        11.490       102.482
H       136.790        12.727       102.126
C       138.640        13.500       102.920
H       138.394        14.512       102.581
H       139.710        13.346       102.747
C       138.370        13.410       104.430
H       138.948        12.566       104.820
H       137.308        13.177       104.564
C       138.690        14.630       105.290
H       137.957        15.417       105.083
H       139.674        15.020       105.009
C       138.680        14.310       106.760
H       139.523        13.667       107.033
H       137.767        13.777       107.045
C       138.770        15.670       107.490
H       139.683        16.215       107.230
H       137.928        16.325       107.242
H       138.770        15.552       108.579
C       137.950        10.360       100.420
C       138.980         9.720       101.130
H       140.020        10.030       101.120
C       138.430         8.790       102.030
C       137.100         8.610       101.770
S       136.360         9.510       100.370
C       139.240         7.820       102.890
H       139.544         6.988       102.247
H       138.567         7.421       103.656
C       140.490         8.330       103.600
H       141.292         8.506       102.876
H       140.854         7.581       104.311
C       140.150         9.640       104.340
H       139.316         9.458       105.026
H       139.818        10.387       103.611
C       141.340        10.200       105.130
H       142.092        10.604       104.444
H       141.821         9.402       105.705
C       140.840        11.310       106.080
H       140.100        10.890       106.770
H       140.333        12.085       105.496
C       141.970        11.900       106.840
H       142.488        11.153       107.450
H       142.721        12.346       106.179
H       141.638        12.691       107.521
C       136.500         7.900       102.740
C       136.070         6.650       102.300
H       135.890         6.390       101.240
C       136.040         5.820       103.450
C       136.160         6.630       104.600
S       136.440         8.360       104.440
C       135.870         4.290       103.380
H       135.271         3.972       104.240
H       136.859         3.830       103.479
C       135.220         3.770       102.120
H       134.349         4.384       101.867
H       134.860         2.748       102.279
C       136.220         3.790       100.960
H       136.918         2.952       101.056
H       136.812         4.710       100.996
C       135.480         3.700        99.630
H       134.723         4.488        99.566
H       134.955         2.742        99.555
C       136.480         3.840        98.490
H       135.950         3.960        97.539
H       137.085         2.931        98.408
C       137.360         5.030        98.750
H       136.784         5.959        98.820
H       137.917         4.931        99.688
H       138.100         5.175        97.956
C       136.500         5.850       105.740
C       137.860         6.050       105.840
H       138.600         6.190       105.040
C       138.190         6.020       107.170
C       137.010         5.750       107.940
S       135.480         5.430       107.140
C       139.600         6.080       107.680
H       140.246         5.525       106.992
H       139.644         5.572       108.649
C       140.150         7.470       107.840
H       139.464         8.090       108.426
H       140.263         7.954       106.864
C       141.500         7.370       108.540
H       142.272         6.967       107.876
H       141.456         6.708       109.411
C       141.810         8.820       108.950
H       141.845         9.455       108.058
H       142.797         8.866       109.421
C       140.750         9.350       109.920
H       140.810         8.816       110.874
H       139.747         9.174       109.517
C       140.990        10.820       110.120
H       141.983        11.021       110.536
H       140.921        11.378       109.181
H       140.263        11.265       110.807
C       137.190         5.710       109.310
C       137.210         4.430       109.840
H       137.010         3.580       109.270
C       137.610         4.540       111.220
C       137.860         5.830       111.520
S       137.580         7.090       110.300
C       137.680         3.440       112.290
H       138.450         3.749       113.004
H       138.035         2.536       111.784
C       136.470         3.040       113.100
H       135.813         3.915       113.149
H       136.821         2.823       114.114
C       135.550         1.820       112.680
H       136.149         0.909       112.583
H       135.090         2.010       111.705
C       134.480         1.660       113.770
H       134.910         1.334       114.723
H       133.722         0.918       113.496
C       133.890         3.080       113.860
H       134.438         3.721       113.161
H       134.077         3.462       114.869
C       132.450         3.180       113.570
H       132.210         2.836       112.559
H       131.850         2.578       114.260
H       132.086         4.210       113.649
C       138.620         5.920       112.690
C       139.950         5.960       112.370
H       140.540         5.960       111.450
C       140.630         6.020       113.610
C       139.790         6.390       114.650
S       138.120         6.320       114.320
C       142.130         5.800       113.740
H       142.317         4.746       113.971
H       142.507         6.395       114.578
C       142.960         6.180       112.450
H       142.448         5.795       111.562
H       143.942         5.699       112.495
C       143.120         7.690       112.350
H       142.153         8.158       112.137
H       143.793         7.943       111.524
C       143.690         8.250       113.680
H       144.732         7.939       113.807
H       143.127         7.853       114.531
C       143.590         9.790       113.640
H       144.163        10.195       112.800
H       143.999        10.230       114.555
C       142.060        10.160       113.490
H       141.625         9.745       112.575
H       141.462         9.780       114.325
H       141.902        11.243       113.454
C       140.340         6.290       115.920
C       139.800         5.190       116.580
H       139.270         4.390       116.110
C       140.020         5.250       117.940
C       140.740         6.420       118.260
S       141.210         7.430       116.890
C       139.320         4.360       119.000
H       139.311         4.849       119.980
H       139.845         3.406       119.120
C       137.860         4.130       118.480
H       137.444         3.241       118.966
H       137.892         3.936       117.403
C       136.910         5.350       118.750
H       137.210         6.192       118.117
H       137.020         5.673       119.790
C       135.510         4.960       118.470
H       134.846         5.831       118.463
H       135.123         4.279       119.236
C       135.550         4.300       117.130
H       134.751         3.557       117.035
H       136.495         3.766       116.984
C       135.390         5.390       116.120
H       134.443         5.927       116.242
H       136.189         6.136       116.191
H       135.406         5.005       115.095
C       140.870         6.690       119.610
C       142.240         6.650       119.970
H       143.020         6.450       119.250
C       142.390         6.830       121.330
C       141.180         7.080       121.920
S       139.750         7.160       120.860
C       143.750         6.760       122.030
H       143.711         7.385       122.928
H       144.506         7.188       121.364
C       144.190         5.360       122.430
H       144.456         4.779       121.541
H       143.368         4.833       122.925
C       145.390         5.460       123.370
H       146.267         5.897       122.882
H       145.696         4.484       123.761
C       144.840         6.410       124.540
H       143.822         6.111       124.812
H       144.793         7.445       124.185
C       145.780         6.290       125.740
H       145.612         5.343       126.263
H       145.584         7.092       126.459
C       147.210         6.370       125.230
H       147.437         5.569       124.519
H       147.410         7.316       124.716
H       147.940         6.290       126.042
C       141.290         6.910       123.320
C       140.860         5.610       123.630
H       140.720         4.750       122.930
C       140.690         5.660       125.010
C       140.910         6.920       125.530
S       141.750         8.080       124.510
C       140.520         4.310       125.740
H       140.069         3.580       125.060
H       139.832         4.434       126.582
C       141.840         3.820       126.220
H       142.475         4.640       126.570
H       142.395         3.305       125.429
C       141.510         2.840       127.390
H       141.108         1.909       126.977
H       140.731         3.281       128.020
C       142.740         2.540       128.230
H       143.188         3.450       128.643
H       143.522         2.038       127.650
C       142.180         1.620       129.350
H       141.892         0.653       128.924
H       141.276         2.066       129.776
C       143.220         1.440       130.400
H       144.131         0.982       130.001
H       143.516         2.393       130.852
H       142.873         0.797       131.215
C       140.640         6.990       126.880
C       141.860         7.000       127.650
H       142.890         6.880       127.370
C       141.470         7.230       128.980
C       140.100         7.580       129.090
S       139.060         7.220       127.670
C       142.460         6.990       130.170
H       142.504         5.916       130.381
H       142.066         7.489       131.062
C       143.910         7.510       129.900
H       143.890         8.598       129.774
H       144.286         7.075       128.968
C       144.890         7.140       131.080
H       144.533         6.251       131.611
H       144.934         7.954       131.812
C       146.230         6.900       130.440
H       146.929         6.593       131.225
H       146.587         7.853       130.037
C       146.290         5.880       129.340
H       147.246         5.960       128.813
H       145.501         6.079       128.607
C       146.130         4.480       129.890
H       146.916         4.230       130.611
H       145.173         4.349       130.406
H       146.171         3.722       129.101
C       139.730         7.910       130.370
C       138.520         7.290       130.600
H       137.940         6.520       130.040
C       138.080         7.900       131.830
C       139.030         8.750       132.440
S       140.530         9.030       131.510
C       136.740         7.520       132.470
H       135.971         7.460       131.692
H       136.439         8.304       133.173
C       136.790         6.140       133.240
H       137.493         6.221       134.076
H       137.169         5.366       132.564
C       135.400         5.730       133.770
H       134.848         6.608       134.121
H       135.499         5.051       134.623
C       134.660         5.050       132.620
H       134.839         5.567       131.671
H       133.578         5.054       132.786
C       135.210         3.610       132.580
H       135.265         3.219       133.601
H       136.229         3.627       132.180
C       134.350         2.680       131.730
H       133.324         2.612       132.107
H       134.284         3.018       130.691
H       134.748         1.660       131.707
C       138.680         9.150       133.690
C       139.470         8.410       134.560
H       140.190         7.730       134.220
C       139.220         8.890       135.850
C       138.300         9.920       135.800
S       137.520        10.330       134.300
C       139.800         8.290       137.170
H       139.921         7.206       137.077
H       139.114         8.467       138.005
C       141.150         8.970       137.420
H       141.455         8.855       138.465
H       141.085        10.046       137.228
C       142.100         8.310       136.500
H       141.764         8.383       135.460
H       142.196         7.242       136.724
C       143.420         9.020       136.690
H       143.768         8.869       137.717
H       143.275        10.097       136.555
C       144.440         8.530       135.740
H       144.062         8.532       134.712
H       144.730         7.498       135.963
C       145.600         9.460       135.890
H       145.329        10.495       135.657
H       145.998         9.458       136.910
H       146.429         9.192       135.226
C       137.810        10.290       137.080
C       136.470         9.970       137.010
H       136.070         9.300       136.230
C       135.820        10.250       138.230
C       136.820        10.750       139.040
S       138.480        11.000       138.530
C       134.480         9.730       138.710
H       134.148        10.335       139.560
H       134.605         8.703       139.068
C       133.400         9.750       137.640
H       133.727         9.204       136.749
H       133.183        10.777       137.327
C       132.130         9.090       138.240
H       131.671         9.760       138.975
H       132.399         8.168       138.766
C       131.150         8.790       137.110
H       130.678         9.722       136.781
H       130.354         8.138       137.483
C       131.840         8.130       135.940
H       132.668         7.522       136.319
H       132.269         8.909       135.301
C       130.940         7.240       135.080
H       130.503         6.418       135.657
H       130.106         7.800       134.644
H       131.487         6.786       134.247
C       136.400        11.110       140.330
C       135.930        12.420       140.120
H       135.870        12.960       139.150
C       135.540        13.010       141.370
C       135.990        12.150       142.370
S       136.580        10.500       141.960
C       134.770        14.280       141.540
H       134.929        14.901       140.652
H       135.185        14.822       142.396
C       133.290        14.130       141.750
H       132.822        15.120       141.780
H       133.104        13.655       142.719
C       132.640        13.300       140.650
H       131.565        13.224       140.842
H       133.049        12.285       140.673
C       132.860        13.900       139.250
H       133.886        13.706       138.919
H       132.732        14.987       139.287
C       131.870        13.290       138.270
H       132.251        12.353       137.851
H       131.684        13.960       137.424
C       130.610        13.060       139.080
H       130.783        12.384       139.924
H       130.214        13.992       139.497
H       129.810        12.617       138.477
H       135.986        12.478       143.415
