  727
Data form file: SCF_n_PBE0_6-31G#_CHelpG_P3HT_229_R29/SCF_n_PBE0_6-31G#_CHelpG_P3HT_229_R29.log  geo_count:  1
H        28.600       208.668        54.514
C        28.640       207.620        54.200
C        29.600       207.210        53.320
H        30.400       207.850        52.990
C        29.440       205.900        52.980
C        28.430       205.420        53.840
S        27.450       206.490        54.850
C        30.230       205.240        51.830
H        29.677       205.320        50.888
H        30.375       204.173        52.026
C        31.560       205.960        51.740
H        31.435       207.021        51.980
H        31.956       205.903        50.721
C        32.560       205.310        52.730
H        32.546       204.220        52.631
H        32.280       205.538        53.764
C        33.890       205.870        52.390
H        33.900       206.939        52.627
H        34.055       205.774        51.312
C        35.050       205.200        53.120
H        35.947       205.825        53.063
H        35.294       204.242        52.648
C        34.650       204.980        54.590
H        34.417       205.922        55.097
H        33.765       204.342        54.683
H        35.449       204.500        55.165
C        28.020       204.130        53.600
C        26.660       204.210        53.190
H        26.090       205.130        53.180
C        26.300       203.050        52.490
C        27.360       202.140        52.480
S        28.740       202.490        53.490
C        24.890       202.930        51.960
H        24.612       201.873        52.020
H        24.920       203.203        50.900
C        23.810       203.710        52.590
H        24.131       204.733        52.814
H        23.493       203.264        53.538
C        22.640       203.720        51.580
H        22.634       202.789        51.004
H        22.768       204.541        50.867
C        21.320       203.880        52.340
H        21.121       204.940        52.527
H        21.387       203.387        53.316
C        20.190       203.270        51.520
H        20.570       202.444        50.910
H        19.775       204.016        50.834
C        19.070       202.750        52.470
H        19.440       201.984        53.160
H        18.648       203.552        53.084
H        18.238       202.303        51.917
C        27.400       201.470        51.260
C        27.280       200.130        51.310
H        27.070       199.550        52.160
C        27.660       199.610        50.100
C        28.020       200.630        49.250
S        27.890       202.290        49.810
C        27.850       198.130        49.800
H        28.187       197.628        50.713
H        28.646       198.023        49.055
C        26.610       197.430        49.290
H        26.034       198.076        48.619
H        25.943       197.150        50.112
C        27.120       196.170        48.540
H        26.268       195.686        48.052
H        27.525       195.467        49.275
C        28.210       196.450        47.470
H        28.896       197.187        47.901
H        27.706       196.918        46.618
C        29.060       195.310        46.920
H        28.578       194.905        46.024
H        29.099       194.504        47.660
C        30.460       195.740        46.580
H        30.474       196.530        45.822
H        30.993       196.130        47.454
H        31.059       194.912        46.186
C        28.650       200.160        48.130
C        27.860       200.110        46.980
H        26.740       200.200        47.080
C        28.620       199.810        45.840
C        29.930       199.780        46.270
S        30.310       199.720        48.000
C        28.000       199.600        44.510
H        28.630       200.106        43.771
H        27.030       200.108        44.517
C        27.770       198.210        44.020
H        27.109       197.658        44.696
H        28.709       197.649        43.971
C        27.150       198.340        42.650
H        27.714       199.039        42.024
H        26.127       198.727        42.713
C        27.170       196.940        42.060
H        26.623       196.229        42.688
H        28.191       196.557        41.964
C        26.500       197.100        40.680
H        25.417       197.192        40.816
H        26.677       196.195        40.089
C        27.020       198.290        39.950
H        26.843       199.219        40.501
H        28.099       198.225        39.776
H        26.548       198.408        38.969
C        30.810       200.000        45.200
C        31.390       201.250        45.440
H        31.280       201.870        46.340
C        32.300       201.450        44.420
C        32.240       200.500        43.440
S        31.250       199.050        43.800
C        33.230       202.680        44.410
H        32.714       203.507        44.909
H        33.401       202.975        43.370
C        34.600       202.480        45.090
H        35.244       201.842        44.476
H        34.479       201.979        46.056
C        35.220       203.860        45.270
H        34.656       204.454        45.997
H        35.214       204.421        44.329
C        36.640       203.610        45.750
H        37.196       203.001        45.029
H        36.643       203.055        46.694
C        37.220       204.940        45.900
H        36.892       205.635        45.120
H        38.315       204.930        45.869
C        36.700       205.390        47.310
H        35.606       205.419        47.354
H        37.031       204.713        48.105
H        37.055       206.391        47.578
C        32.620       200.960        42.190
C        33.320       199.970        41.500
H        33.660       199.050        41.960
C        33.450       200.360        40.130
C        32.580       201.500        39.920
S        31.900       202.300        41.310
C        34.260       199.640        39.090
H        34.720       200.343        38.388
H        33.636       198.961        38.500
C        35.360       198.840        39.860
H        35.638       197.980        39.242
H        34.910       198.461        40.783
C        36.680       199.590        40.250
H        36.441       200.566        40.686
H        37.284       199.774        39.356
C        37.450       198.730        41.250
H        38.451       199.157        41.374
H        37.569       197.728        40.824
C        36.810       198.590        42.640
H        37.362       197.863        43.245
H        35.784       198.218        42.554
C        36.840       199.950        43.270
H        37.861       200.332        43.373
H        36.283       200.687        42.682
H        36.400       199.947        44.273
C        32.010       201.460        38.630
C        30.780       200.800        38.630
H        30.340       200.310        39.510
C        30.080       201.240        37.460
C        31.000       201.870        36.590
S        32.630       202.190        37.140
C        28.590       201.110        37.370
H        28.263       200.113        37.685
H        28.246       201.250        36.340
C        27.960       202.200        38.300
H        27.881       201.775        39.306
H        26.945       202.399        37.940
C        28.700       203.550        38.410
H        28.438       204.177        37.551
H        29.780       203.375        38.363
C        28.350       204.240        39.670
H        28.488       203.576        40.530
H        27.299       204.546        39.668
C        29.260       205.480        39.810
H        29.197       205.869        40.832
H        28.910       206.271        39.139
C        30.700       205.120        39.480
H        31.091       204.343        40.145
H        30.805       204.744        38.457
H        31.369       205.982        39.571
C        30.410       202.280        35.420
C        30.230       203.650        35.500
H        30.840       204.300        36.110
C        29.270       204.040        34.600
C        28.670       202.930        33.960
S        29.470       201.350        34.170
C        28.960       205.500        34.290
H        28.003       205.551        33.760
H        29.730       205.886        33.614
C        28.890       206.390        35.510
H        29.843       206.371        36.048
H        28.120       206.029        36.200
C        28.560       207.860        35.080
H        28.709       208.547        35.919
H        27.511       207.945        34.778
C        29.490       208.190        33.930
H        29.188       207.597        33.060
H        30.503       207.877        34.204
C        29.530       209.640        33.530
H        30.113       209.775        32.613
H        30.009       210.245        34.307
C        28.070       210.110        33.310
H        27.568       209.535        32.525
H        27.464       210.005        34.216
H        28.018       211.163        33.015
C        27.380       203.090        33.510
C        26.560       202.120        34.030
H        26.840       201.550        34.910
C        25.290       202.120        33.530
C        25.140       203.210        32.640
S        26.620       204.130        32.320
C        24.180       201.130        33.910
H        23.461       201.031        33.090
H        23.628       201.493        34.783
C        24.830       199.760        34.220
H        25.810       199.905        34.687
H        24.991       199.201        33.292
C        23.900       198.960        35.170
H        22.938       198.761        34.687
H        23.690       199.537        36.077
C        24.620       197.670        35.500
H        24.554       196.977        34.655
H        24.141       197.181        36.355
C        26.080       197.960        35.820
H        26.199       198.904        36.361
H        26.689       198.037        34.913
C        26.510       196.750        36.690
H        25.912       196.669        37.604
H        26.402       195.801        36.155
H        27.557       196.821        37.002
C        23.840       203.520        32.360
C        23.830       204.070        31.100
H        24.360       203.700        30.180
C        22.780       205.000        31.040
C        22.060       204.920        32.240
S        22.590       203.850        33.520
C        22.460       205.720        29.730
H        21.440       206.117        29.764
H        22.506       205.012        28.896
C        23.460       206.880        29.480
H        23.257       207.316        28.496
H        24.476       206.473        29.461
C        23.400       208.030        30.560
H        22.983       207.621        31.486
H        22.719       208.810        30.205
C        24.780       208.660        30.860
H        24.613       209.579        31.431
H        25.236       208.941        29.905
C        25.760       207.800        31.620
H        26.632       208.398        31.904
H        26.120       206.992        30.974
C        25.120       207.220        32.850
H        24.766       207.998        33.534
H        24.255       206.595        32.606
H        25.815       206.592        33.417
C        21.130       205.910        32.420
C        21.490       206.530        33.600
H        22.230       206.170        34.250
C        20.530       207.520        33.880
C        19.610       207.570        32.770
S        19.710       206.430        31.440
C        20.530       208.350        35.180
H        19.927       207.844        35.941
H        20.066       209.325        34.996
C        21.940       208.530        35.670
H        22.149       209.581        35.897
H        22.666       208.224        34.909
C        22.040       207.680        36.890
H        23.040       207.792        37.321
H        21.923       206.630        36.603
C        21.000       208.000        37.990
H        20.003       207.752        37.612
H        21.019       209.077        38.188
C        21.230       207.250        39.310
H        20.457       207.530        40.034
H        22.197       207.539        39.735
C        21.200       205.710        39.090
H        20.240       205.372        38.685
H        21.973       205.381        38.388
H        21.363       205.159        40.022
C        18.770       208.650        33.010
C        19.410       209.830        32.650
H        20.330       209.930        32.100
C        18.700       210.880        33.200
C        17.430       210.380        33.560
S        17.080       208.720        33.550
C        19.400       212.240        33.270
H        18.663       213.048        33.222
H        20.072       212.365        32.414
C        20.190       212.320        34.580
H        20.438       213.367        34.782
H        21.131       211.773        34.462
C        19.430       211.740        35.820
H        19.210       210.676        35.680
H        18.473       212.251        35.965
C        20.370       211.960        37.040
H        20.652       213.017        37.087
H        21.288       211.382        36.891
C        19.720       211.550        38.350
H        20.400       211.767        39.180
H        19.544       210.469        38.349
C        18.400       212.280        38.570
H        18.532       213.366        38.602
H        17.678       212.072        37.773
H        17.923       211.991        39.513
C        16.480       211.330        33.960
C        15.950       210.980        35.200
H        16.390       210.230        35.760
C        14.730       211.650        35.380
C        14.740       212.730        34.510
S        15.810       212.700        33.070
C        13.660       211.360        36.480
H        12.704       211.817        36.205
H        13.968       211.806        37.432
C        13.520       209.860        36.610
H        12.777       209.620        37.378
H        14.471       209.424        36.933
C        13.100       209.250        35.280
H        13.315       208.176        35.284
H        13.690       209.692        34.470
C        11.650       209.480        35.040
H        11.393       210.544        35.052
H        11.025       209.004        35.803
C        11.450       208.870        33.690
H        11.890       209.513        32.921
H        10.380       208.787        33.473
C        12.100       207.450        33.600
H        13.179       207.481        33.783
H        11.674       206.757        34.333
H        11.958       206.996        32.614
C        13.710       213.630        34.710
C        14.170       214.900        34.970
H        15.100       215.170        35.500
C        13.270       215.840        34.460
C        12.160       215.160        33.940
S        11.980       213.480        34.290
C        13.680       217.290        34.460
H        14.192       217.539        35.395
H        12.797       217.934        34.394
C        14.620       217.570        33.260
H        14.046       217.490        32.331
H        15.398       216.800        33.229
C        15.250       218.920        33.350
H        14.507       219.702        33.535
H        15.761       219.191        32.420
C        16.210       218.790        34.490
H        16.795       217.869        34.398
H        15.672       218.736        35.442
C        17.160       220.020        34.490
H        17.859       219.991        35.332
H        16.605       220.960        34.574
C        17.870       219.890        33.150
H        18.424       218.949        33.069
H        17.169       219.918        32.310
H        18.592       220.698        32.988
C        11.560       215.800        32.870
C        10.170       216.080        33.080
H         9.570       216.010        33.960
C         9.660       216.690        31.910
C        10.660       216.780        30.920
S        12.250       216.040        31.240
C         8.240       217.190        31.890
H         8.158       218.108        31.298
H         7.897       217.431        32.902
C         7.370       216.080        31.280
H         7.562       215.153        31.830
H         7.692       215.921        30.246
C         5.900       216.350        31.290
H         5.706       217.269        30.726
H         5.580       216.525        32.323
C         5.030       215.230        30.700
H         5.291       214.270        31.156
H         5.214       215.136        29.625
C         3.570       215.560        30.960
H         3.305       216.552        30.579
H         3.341       215.564        32.031
C         2.820       214.460        30.230
H         3.041       214.455        29.158
H         3.076       213.466        30.611
H         1.735       214.568        30.330
C        10.490       217.840        30.090
C         9.940       217.540        28.850
H         9.240       216.810        28.590
C        10.310       218.480        27.860
C        11.300       219.260        28.350
S        11.560       219.280        30.110
C         9.680       218.550        26.490
H         9.767       219.570        26.100
H         8.612       218.323        26.568
C        10.330       217.580        25.510
H        10.095       216.550        25.798
H        11.419       217.686        25.552
C         9.840       217.850        24.120
H        10.456       218.651        23.697
H         8.815       218.228        24.193
C         9.840       216.710        23.150
H         9.435       215.809        23.622
H        10.863       216.477        22.836
C         8.990       217.080        21.920
H         8.811       216.170        21.338
H         9.570       217.766        21.294
C         7.620       217.740        22.220
H         6.974       217.090        22.819
H         7.729       218.678        22.775
H         7.069       217.976        21.304
C        12.040       219.910        27.340
C        12.040       221.280        27.470
H        11.450       221.710        28.310
C        12.600       221.880        26.300
C        13.350       220.880        25.680
S        13.040       219.220        26.090
C        12.500       223.370        26.050
H        11.526       223.734        26.393
H        12.557       223.565        24.974
C        13.600       224.120        26.760
H        14.525       223.535        26.788
H        13.328       224.333        27.799
C        13.800       225.420        25.970
H        14.717       225.923        26.293
H        12.970       226.109        26.158
C        13.880       225.080        24.470
H        12.941       224.592        24.189
H        14.685       224.350        24.337
C        14.120       226.220        23.510
H        15.085       226.691        23.723
H        13.351       226.988        23.642
C        14.100       225.710        22.080
H        14.872       224.954        21.903
H        13.140       225.250        21.822
H        14.271       226.513        21.356
C        14.040       221.210        24.530
C        13.280       220.890        23.440
H        12.240       220.580        23.600
C        14.070       220.850        22.260
C        15.260       221.460        22.610
S        15.660       221.710        24.270
C        13.600       220.150        20.970
H        14.019       220.636        20.083
H        12.510       220.192        20.874
C        14.090       218.680        21.080
H        15.181       218.695        21.168
H        13.841       218.172        20.143
C        13.530       217.880        22.220
H        12.467       217.682        22.051
H        13.606       218.452        23.151
C        14.280       216.570        22.360
H        15.303       216.778        22.691
H        14.347       216.091        21.378
C        13.630       215.620        23.330
H        14.174       214.670        23.353
H        12.605       215.397        23.015
C        13.620       216.250        24.730
H        14.631       216.468        25.089
H        13.066       217.194        24.751
H        13.155       215.593        25.472
C        16.130       221.740        21.580
C        16.520       223.080        21.650
H        16.240       223.740        22.420
C        17.320       223.420        20.630
C        17.440       222.310        19.710
S        16.700       220.810        20.210
C        17.790       224.850        20.490
H        17.098       225.547        20.974
H        17.855       225.147        19.438
C        19.170       224.890        21.160
H        19.729       223.992        20.878
H        19.039       224.865        22.247
C        19.960       226.110        20.780
H        20.997       226.005        21.115
H        19.549       226.994        21.279
C        19.920       226.300        19.280
H        18.894       226.449        18.926
H        20.311       225.420        18.758
C        20.780       227.530        19.000
H        20.429       228.057        18.107
H        21.820       227.245        18.812
C        20.670       228.410        20.230
H        19.636       228.714        20.426
H        21.027       227.902        21.131
H        21.257       229.329        20.131
C        18.190       222.630        18.600
C        19.400       221.990        18.600
H        19.760       221.330        19.360
C        20.170       222.380        17.460
C        19.360       223.180        16.650
S        17.650       223.420        17.120
C        21.580       221.880        17.170
H        22.179       221.844        18.086
H        22.098       222.549        16.475
C        21.430       220.470        16.560
H        20.555       220.418        15.904
H        21.295       219.717        17.343
C        22.760       220.170        15.730
H        23.614       220.091        16.411
H        22.964       220.997        15.042
C        22.570       218.840        14.940
H        21.806       218.963        14.165
H        22.224       218.045        15.609
C        23.910       218.490        14.330
H        23.839       217.604        13.691
H        24.655       218.271        15.102
C        24.350       219.750        13.480
H        23.629       219.983        12.689
H        24.445       220.649        14.098
H        25.318       219.598        12.992
C        20.150       223.630        15.630
C        19.660       222.990        14.510
H        18.750       222.470        14.320
C        20.640       223.190        13.520
C        21.660       224.120        13.930
S        21.350       224.850        15.500
C        20.730       222.430        12.200
H        21.761       222.423        11.832
H        20.119       222.919        11.434
C        20.240       221.000        12.440
H        19.236       221.044        12.876
H        20.898       220.525        13.175
C        20.190       220.120        11.190
H        19.679       220.639        10.372
H        19.627       219.201        11.386
C        21.630       219.800        10.810
H        22.158       219.395        11.680
H        22.145       220.720        10.516
C        21.690       218.790         9.660
H        20.982       217.977         9.855
H        22.692       218.350         9.617
C        21.360       219.430         8.290
H        20.355       219.864         8.271
H        22.057       220.235         8.035
H        21.406       218.700         7.475
C        22.640       224.370        12.960
C        22.200       225.400        12.120
H        21.330       226.060        12.180
C        23.080       225.490        11.060
C        23.920       224.370        11.090
S        23.990       223.360        12.560
C        22.920       226.550         9.980
H        22.227       226.176         9.219
H        23.889       226.708         9.495
C        22.400       227.910        10.490
H        23.235       228.586        10.702
H        21.842       227.783        11.424
C        21.490       228.500         9.390
H        22.099       229.109         8.714
H        20.753       229.163         9.856
C        20.760       227.430         8.580
H        20.308       226.705         9.266
H        21.486       226.885         7.967
C        19.710       228.020         7.710
H        19.148       227.243         7.182
H        20.146       228.672         6.946
C        18.770       228.830         8.640
H        18.305       228.198         9.404
H        19.303       229.627         9.169
H        17.956       229.307         8.085
C        24.510       224.090         9.890
C        24.270       222.780         9.720
H        23.620       222.160        10.290
C        24.930       222.350         8.560
C        25.580       223.450         7.980
S        25.690       224.970         8.860
C        25.070       220.890         8.290
H        25.966       220.701         7.689
H        24.211       220.528         7.715
C        25.170       220.080         9.630
H        24.263       220.234        10.225
H        26.014       220.447        10.223
C        25.350       218.600         9.310
H        26.220       218.514         8.650
H        24.470       218.281         8.743
C        25.540       217.620        10.440
H        24.658       217.625        11.089
H        26.395       217.922        11.054
C        25.770       216.210         9.900
H        25.797       215.488        10.723
H        26.739       216.151         9.393
C        24.660       215.900         8.960
H        23.682       215.941         9.452
H        24.623       216.604         8.122
H        24.756       214.898         8.528
C        26.240       223.160         6.750
C        25.640       223.710         5.670
H        24.690       224.180         5.620
C        26.330       223.430         4.480
C        27.410       222.550         4.820
S        27.640       222.090         6.500
C        25.970       224.100         3.130
H        24.888       224.251         3.056
H        26.265       223.456         2.295
C        26.710       225.460         3.050
H        27.093       225.637         2.040
H        27.575       225.474         3.722
C        25.690       226.470         3.440
H        25.403       226.330         4.487
H        24.782       226.339         2.842
C        26.240       227.840         3.240
H        26.629       227.955         2.223
H        27.069       228.027         3.930
C        25.090       228.940         3.490
H        24.660       228.799         4.487
H        24.285       228.800         2.761
C        25.690       230.370         3.360
H        26.491       230.546         4.086
H        26.117       230.547         2.367
H        24.936       231.147         3.524
C        28.160       222.010         3.790
C        28.180       220.610         3.940
H        27.530       220.090         4.640
C        29.120       220.100         3.080
C        29.810       221.180         2.430
S        29.280       222.860         2.640
C        29.390       218.580         2.850
H        29.240       218.017         3.777
H        30.428       218.415         2.543
C        28.430       218.160         1.790
H        28.680       218.631         0.833
H        27.413       218.480         2.041
C        28.510       216.690         1.690
H        27.880       216.320         0.874
H        28.150       216.217         2.609
C        29.970       216.310         1.440
H        30.057       215.219         1.434
H        30.582       216.684         2.268
C        30.530       216.860         0.120
H        30.313       217.926        -0.007
H        30.107       216.349        -0.751
C        32.020       216.590         0.280
H        32.438       217.103         1.153
H        32.232       215.523         0.407
H        32.594       216.926        -0.590
C        30.820       220.830         1.560
C        31.970       220.720         2.260
H        32.150       220.960         3.260
C        32.970       220.090         1.480
C        32.550       220.060         0.140
S        30.890       220.600        -0.190
C        34.360       219.610         1.930
H        35.077       220.426         1.791
H        34.674       218.784         1.284
C        34.410       219.150         3.380
H        34.114       219.984         4.025
H        35.444       218.896         3.634
C        33.540       217.990         3.650
H        33.984       217.097         3.197
H        32.570       218.151         3.167
C        33.300       217.710         5.130
H        32.825       218.581         5.593
H        34.261       217.555         5.632
C        32.400       216.460         5.360
H        31.350       216.704         5.171
H        32.468       216.125         6.400
C        32.890       215.390         4.410
H        32.820       215.707         3.364
H        33.937       215.128         4.592
H        32.311       214.465         4.501
C        33.510       219.860        -0.870
C        34.100       221.090        -1.190
H        34.090       221.980        -0.560
C        34.590       221.110        -2.540
C        34.410       219.830        -3.070
S        33.770       218.530        -1.980
C        34.950       222.430        -3.230
H        34.678       222.343        -4.287
H        36.037       222.554        -3.175
C        34.300       223.720        -2.680
H        34.872       224.575        -3.055
H        34.396       223.710        -1.589
C        32.840       223.930        -3.030
H        32.561       223.308        -3.887
H        32.665       224.971        -3.319
C        31.990       223.570        -1.820
H        32.171       224.301        -1.025
H        32.303       222.592        -1.441
C        30.500       223.530        -2.130
H        29.960       223.146        -1.258
H        30.322       222.837        -2.959
C        29.910       224.930        -2.510
H        30.034       225.660        -1.703
H        30.394       225.352        -3.397
H        28.838       224.878        -2.729
C        34.830       219.840        -4.390
C        36.240       219.860        -4.370
H        36.900       219.890        -3.490
C        36.720       219.680        -5.670
C        35.600       219.360        -6.510
S        33.950       219.430        -5.870
C        38.210       220.040        -6.130
H        38.175       220.403        -7.163
H        38.806       219.122        -6.122
C        38.870       221.080        -5.250
H        38.910       220.735        -4.212
H        38.298       222.013        -5.264
C        40.370       221.370        -5.770
H        40.390       221.380        -6.865
H        41.041       220.572        -5.437
C        40.820       222.740        -5.200
H        40.859       222.677        -4.108
H        40.073       223.497        -5.459
C        42.190       223.180        -5.730
H        42.420       224.189        -5.373
H        42.168       223.226        -6.824
C        43.210       222.220        -5.270
H        43.260       222.167        -4.177
H        43.009       221.205        -5.627
H        44.212       222.487        -5.621
C        35.940       219.110        -7.860
C        35.180       219.960        -8.700
H        34.440       220.590        -8.220
C        35.330       219.670        -9.990
C        36.330       218.670       -10.140
S        37.080       218.130        -8.680
C        34.460       220.360       -11.080
H        35.018       220.406       -12.021
H        34.243       221.390       -10.780
C        33.160       219.590       -11.280
H        32.692       219.430       -10.303
H        33.395       218.604       -11.694
C        32.190       220.280       -12.180
H        31.798       221.188       -11.710
H        31.328       219.638       -12.391
C        32.930       220.610       -13.440
H        33.514       219.745       -13.771
H        33.639       221.424       -13.258
C        31.950       221.010       -14.510
H        31.253       220.185       -14.690
H        32.490       221.198       -15.444
C        31.090       222.320       -14.160
H        30.495       222.189       -13.250
H        31.726       223.197       -14.000
H        30.390       222.578       -14.962
H        36.579       218.293       -11.137
