  802
Data form file: SCF_n_PBE0_6-31G#_CHelpG_P3HT_415_R32.log  geo_count:  1
H       119.980       181.520        77.930
C       120.340       182.320        78.570
C       119.870       182.490        79.890
H       119.020       181.830        80.210
C       120.650       183.320        80.680
C       121.670       183.860        79.900
S       121.810       183.260        78.260
C       120.270       183.650        82.120
H       119.177       183.641        82.191
H       120.609       184.669        82.333
C       120.820       182.730        83.230
H       121.914       182.698        83.194
H       120.464       181.704        83.089
C       120.340       183.290        84.560
H       120.839       182.764        85.380
H       119.265       183.112        84.665
C       120.620       184.800        84.680
H       119.977       185.379        84.009
H       121.653       185.036        84.406
C       120.340       185.100        86.120
H       120.469       186.172        86.300
H       121.065       184.574        86.749
C       118.910       184.690        86.560
H       118.138       185.210        85.983
H       118.733       183.617        86.431
H       118.724       184.917        87.615
C       122.470       184.760        80.590
C       123.660       184.180        80.990
H       123.930       183.150        80.840
C       124.440       185.210        81.590
C       123.770       186.430        81.500
S       122.230       186.540        80.740
C       125.760       184.920        82.300
H       125.562       184.688        83.352
H       126.388       185.817        82.278
C       126.500       183.770        81.660
H       126.487       183.918        80.575
H       125.947       182.849        81.872
C       127.930       183.570        82.090
H       128.012       183.009        83.027
H       128.457       184.517        82.248
C       128.490       182.790        80.900
H       127.816       181.957        80.673
H       129.458       182.362        81.180
C       128.670       183.640        79.640
H       129.228       184.545        79.901
H       127.685       183.961        79.287
C       129.360       182.920        78.590
H       130.360       182.600        78.901
H       128.819       182.018        78.287
H       129.488       183.530        77.690
C       124.530       187.500        81.990
C       123.610       188.060        82.820
H       122.590       187.800        83.060
C       124.220       189.270        83.210
C       125.590       189.250        83.050
S       126.210       188.200        81.830
C       123.390       190.480        83.600
H       123.956       191.118        84.287
H       122.484       190.160        84.124
C       122.990       191.310        82.330
H       122.288       192.098        82.621
H       122.474       190.655        81.620
C       124.220       191.940        81.650
H       125.081       191.264        81.636
H       124.548       192.858        82.149
C       123.670       192.220        80.210
H       123.733       191.302        79.616
H       124.303       192.969        79.723
C       122.230       192.710        80.250
H       122.232       193.712        80.692
H       121.673       192.052        80.925
C       121.480       192.780        78.950
H       121.963       193.453        78.234
H       121.407       191.801        78.465
H       120.456       193.144        79.086
C       126.260       190.040        84.010
C       127.330       189.260        84.530
H       127.420       188.170        84.310
C       128.110       189.930        85.500
C       127.680       191.250        85.580
S       126.430       191.770        84.420
C       129.200       189.340        86.390
H       129.265       189.898        87.330
H       130.175       189.421        85.899
C       128.870       187.870        86.670
H       128.524       187.363        85.763
H       128.067       187.779        87.409
C       130.160       187.270        87.180
H       130.503       187.753        88.101
H       130.975       187.371        86.456
C       129.770       185.840        87.400
H       128.879       185.811        88.035
H       130.576       185.333        87.940
C       129.470       185.030        86.110
H       130.362       185.011        85.476
H       128.675       185.527        85.544
C       129.040       183.580        86.440
H       129.816       183.037        86.989
H       128.136       183.551        87.057
H       128.826       183.000        85.536
C       128.350       192.070        86.460
C       128.880       193.200        85.850
H       128.820       193.440        84.810
C       129.440       194.050        86.850
C       129.230       193.480        88.080
S       128.380       191.950        88.210
C       130.160       195.400        86.500
H       130.613       195.331        85.505
H       130.968       195.585        87.215
C       129.140       196.560        86.540
H       128.736       196.663        87.553
H       128.299       196.336        85.876
C       129.810       197.870        86.110
H       130.258       197.777        85.115
H       130.613       198.149        86.800
C       128.680       198.950        86.110
H       127.885       198.675        85.409
H       129.074       199.918        85.783
C       128.160       199.020        87.530
H       128.002       198.003        87.902
H       127.187       199.522        87.529
C       129.090       199.750        88.470
H       130.073       199.271        88.529
H       129.260       200.785        88.157
H       128.695       199.789        89.490
C       129.540       194.300        89.180
C       130.800       194.140        89.670
H       131.500       193.470        89.350
C       131.140       195.100        90.630
C       129.930       195.810        90.960
S       128.520       195.560        89.850
C       132.550       195.280        91.230
H       132.439       195.698        92.236
H       133.084       196.018        90.623
C       133.390       194.040        91.320
H       134.425       194.280        91.586
H       133.422       193.512        90.361
C       132.740       193.150        92.410
H       133.225       192.169        92.433
H       131.684       192.980        92.176
C       132.890       193.850        93.720
H       132.320       194.785        93.712
H       133.939       194.117        93.883
C       132.410       192.970        94.830
H       132.379       193.544        95.762
H       133.124       192.154        94.982
C       131.080       192.420        94.540
H       130.331       193.207        94.405
H       131.076       191.818        93.625
H       130.719       191.774        95.347
C       130.070       196.640        92.040
C       130.230       197.940        91.660
H       130.110       198.340        90.630
C       130.610       198.610        92.790
C       130.470       197.780        93.930
S       130.110       196.090        93.700
C       131.300       199.980        92.850
H       132.387       199.858        92.804
H       131.072       200.477        93.799
C       130.810       200.820        91.680
H       129.727       200.972        91.725
H       131.022       200.332        90.723
C       131.560       202.150        91.800
H       131.307       202.651        92.740
H       131.273       202.828        90.989
C       133.050       201.840        91.740
H       133.255       201.081        90.978
H       133.398       201.436        92.696
C       133.780       203.140        91.410
H       133.650       203.377        90.349
H       134.854       203.015        91.585
C       133.250       204.280        92.260
H       132.181       204.450        92.097
H       133.381       204.089        93.330
H       133.758       205.225        92.042
C       130.950       198.310        95.120
C       132.030       197.480        95.560
H       132.510       196.720        94.980
C       132.370       197.910        96.840
C       131.570       198.980        97.230
S       130.370       199.680        96.040
C       133.450       197.210        97.740
H       132.927       196.497        98.386
H       133.895       197.980        98.379
C       134.610       196.450        97.040
H       135.398       197.128        96.695
H       134.268       195.899        96.157
C       135.050       195.560        98.150
H       135.942       195.004        97.843
H       134.268       194.824        98.363
C       135.360       196.340        99.420
H       134.505       196.950        99.728
H       136.199       197.027        99.268
C       135.690       195.290       100.460
H       134.771       194.850       100.862
H       136.222       195.743       101.303
C       136.540       194.230        99.810
H       136.025       193.748        98.973
H       137.475       194.640        99.413
H       136.815       193.436       100.513
C       131.650       199.150        98.610
C       130.530       198.560        99.080
H       129.690       198.250        98.510
C       130.660       198.600       100.510
C       131.990       198.890       100.830
S       132.970       199.650        99.600
C       129.720       198.070       101.620
H       128.960       198.819       101.865
H       130.287       197.870       102.535
C       129.040       196.760       101.110
H       129.742       196.231       100.457
H       128.170       197.029       100.502
C       128.620       195.870       102.220
H       127.910       196.386       102.875
H       129.483       195.593       102.834
C       127.960       194.590       101.650
H       128.038       193.772       102.374
H       128.484       194.268       100.744
C       126.520       194.900       101.350
H       126.073       194.090       100.765
H       126.448       195.810       100.745
C       125.760       195.080       102.650
H       125.793       194.180       103.273
H       126.167       195.898       103.253
H       124.703       195.308       102.479
C       132.340       198.150       101.940
C       132.430       198.860       103.080
H       132.180       199.930       103.200
C       132.800       197.970       104.140
C       132.980       196.670       103.570
S       132.830       196.460       101.800
C       133.190       198.630       105.460
H       133.429       199.682       105.272
H       134.097       198.149       105.841
C       132.100       198.560       106.550
H       131.732       197.533       106.641
H       131.247       199.184       106.262
C       132.670       199.030       107.870
H       133.761       198.942       107.876
H       132.293       198.418       108.696
C       132.250       200.520       108.070
H       132.550       201.087       107.183
H       132.807       200.927       108.921
C       130.800       200.690       108.300
H       130.235       199.942       107.735
H       130.471       201.673       107.946
C       130.500       200.550       109.780
H       130.794       199.569       110.167
H       131.030       201.298       110.379
H       129.433       200.669       109.995
C       132.860       195.610       104.500
C       133.600       194.560       104.040
H       134.340       194.680       103.300
C       132.930       193.380       104.290
C       131.960       193.660       105.270
S       131.740       195.290       105.860
C       133.220       192.010       103.650
H       132.338       191.369       103.748
H       134.038       191.522       104.190
C       133.590       192.150       102.180
H       134.063       191.237       101.804
H       134.307       192.964       102.029
C       132.280       192.430       101.450
H       131.899       193.421       101.720
H       131.517       191.702       101.745
C       132.540       192.350        99.960
H       132.758       191.318        99.666
H       133.420       192.945        99.694
C       131.340       192.850        99.280
H       130.496       192.195        99.521
H       131.498       192.800        98.198
C       130.910       194.330        99.630
H       130.694       194.453       100.696
H       131.692       195.055        99.379
H       130.009       194.635        99.087
C       130.920       192.800       105.230
C       130.880       191.620       105.960
H       131.650       191.400       106.690
C       129.600       191.030       105.880
C       128.800       191.720       104.980
S       129.520       193.140       104.190
C       129.240       189.730       106.570
H       129.456       188.891       105.900
H       128.165       189.714       106.778
C       130.010       189.530       107.890
H       131.072       189.412       107.653
H       129.667       188.597       108.349
C       129.870       190.660       108.930
H       130.446       191.533       108.606
H       130.285       190.333       109.889
C       128.390       191.050       109.110
H       127.797       190.161       109.347
H       127.997       191.461       108.174
C       128.260       192.080       110.230
H       128.723       191.652       111.125
H       127.192       192.209       110.435
C       128.860       193.480       110.030
H       129.941       193.442       109.857
H       128.419       193.996       109.171
H       128.701       194.123       110.902
C       127.450       191.490       104.870
C       127.170       191.350       103.510
H       128.030       191.490       102.770
C       125.790       191.220       103.280
C       125.220       191.050       104.520
S       126.120       191.390       106.020
C       125.120       191.330       101.960
H       124.887       192.360       101.669
H       124.176       190.778       101.898
C       126.230       190.710       101.120
H       126.334       189.632       101.284
H       127.212       191.147       101.327
C       125.710       191.050        99.750
H       125.481       192.118        99.673
H       124.782       190.509        99.539
C       126.800       190.660        98.740
H       126.787       191.346        97.887
H       126.610       189.655        98.348
C       128.150       190.710        99.440
H       128.080       190.212       100.412
H       128.427       191.752        99.632
C       129.190       190.050        98.600
H       128.953       188.999        98.404
H       129.300       190.537        97.625
H       130.175       190.069        99.077
C       123.830       191.060       104.440
C       123.390       192.370       104.600
H       124.000       193.260       104.770
C       122.000       192.470       104.380
C       121.520       191.180       104.220
S       122.600       189.800       104.210
C       121.150       193.750       104.580
H       120.293       193.693       103.901
H       121.758       194.608       104.274
C       120.640       194.000       105.970
H       121.423       194.388       106.630
H       120.256       193.086       106.436
C       119.490       195.060       105.780
H       119.944       196.056       105.758
H       118.834       195.013       106.656
C       118.640       194.880       104.520
H       118.092       193.938       104.628
H       119.328       194.767       103.676
C       117.660       195.940       104.170
H       118.151       196.919       104.166
H       116.869       195.984       104.926
C       117.070       195.660       102.830
H       117.832       195.631       102.044
H       116.550       194.696       102.804
H       116.340       196.422       102.536
C       120.140       191.180       104.000
C       119.510       190.620       105.110
H       120.110       190.290       105.970
C       118.100       190.530       104.900
C       117.830       191.090       103.640
S       119.160       191.850       102.740
C       117.100       189.810       105.770
H       117.035       188.769       105.436
H       116.116       190.267       105.619
C       117.400       189.810       107.280
H       118.389       189.379       107.465
H       116.672       189.184       107.807
C       117.340       191.230       107.790
H       116.310       191.594       107.859
H       117.874       191.922       107.130
C       118.000       191.150       109.170
H       119.027       190.785       109.061
H       117.461       190.425       109.789
C       118.010       192.500       109.860
H       117.045       193.014       109.799
H       118.747       193.188       109.434
C       118.350       192.050       111.230
H       117.603       191.357       111.631
H       119.314       191.532       111.264
H       118.415       192.887       111.933
C       116.690       190.580       103.100
C       115.590       191.390       103.200
H       115.630       192.340       103.720
C       114.610       190.890       102.430
C       115.020       189.780       101.720
S       116.660       189.220       101.970
C       113.190       191.520       102.380
H       112.767       191.379       101.380
H       113.267       192.599       102.551
C       112.290       190.900       103.410
H       112.575       191.235       104.413
H       112.395       189.810       103.398
C       110.890       191.290       103.110
H       110.618       192.239       103.584
H       110.171       190.544       103.464
C       110.850       191.410       101.560
H       110.369       190.516       101.150
H       111.878       191.431       101.182
C       110.120       192.630       101.090
H       110.090       192.679        99.997
H       110.610       193.546       101.437
C       108.680       192.530       101.670
H       108.160       191.630       101.325
H       108.680       192.496       102.764
H       108.061       193.385       101.380
C       114.220       189.300       100.760
C       114.050       187.950       100.790
H       114.580       187.310       101.560
C       113.000       187.550        99.850
C       112.710       188.660        99.060
S       113.390       190.170        99.420
C       112.140       186.300        99.820
H       111.726       186.167        98.815
H       111.296       186.422       100.507
C       112.930       185.040       100.210
H       113.154       185.049       101.282
H       113.889       185.014        99.682
C       112.090       183.840        99.850
H       111.623       183.434       100.753
H       112.730       183.054        99.435
C       111.010       184.200        98.840
H       111.444       184.870        98.090
H       110.218       184.751        99.358
C       110.360       183.000        98.100
H       109.509       182.610        98.668
H       111.075       182.177        97.994
C       109.930       183.530        96.760
H       109.210       184.349        96.855
H       110.775       183.917        96.181
H       109.453       182.758        96.147
C       111.730       188.370        98.160
C       110.450       188.680        98.580
H       110.100       188.840        99.650
C       109.620       188.630        97.490
C       110.440       188.580        96.360
S       112.130       188.200        96.440
C       108.110       188.910        97.420
H       107.548       187.979        97.547
H       107.847       189.311        96.436
C       107.760       189.890        98.500
H       108.385       190.787        98.429
H       107.936       189.457        99.490
C       106.290       190.250        98.330
H       105.972       190.833        99.200
H       105.704       189.325        98.319
C       105.940       191.060        97.050
H       106.179       190.466        96.162
H       106.554       191.965        97.008
C       104.480       191.420        97.060
H       104.243       191.991        97.964
H       103.872       190.510        97.081
C       104.100       192.260        95.810
H       104.665       193.196        95.758
H       104.295       191.720        94.878
H       103.039       192.530        95.804
C       109.690       188.970        95.260
C       109.370       187.830        94.490
H       109.760       186.860        94.710
C       108.530       188.250        93.390
C       108.330       189.620        93.440
S       109.040       190.540        94.740
C       107.900       187.220        92.440
H       108.627       186.986        91.655
H       107.030       187.681        91.960
C       107.450       185.900        93.090
H       108.288       185.424        93.610
H       107.108       185.194        92.326
C       106.350       186.240        94.040
H       106.761       186.819        94.874
H       105.935       185.316        94.456
C       105.200       187.050        93.400
H       104.833       186.542        92.502
H       105.559       188.036        93.089
C       104.080       187.190        94.430
H       103.659       186.200        94.634
H       103.280       187.803        94.003
C       104.540       187.810        95.730
H       105.325       187.218        96.212
H       104.947       188.816        95.583
H       103.723       187.901        96.453
C       107.380       190.110        92.530
C       106.140       190.310        93.160
H       105.950       190.000        94.160
C       105.270       190.950        92.280
C       106.020       191.320        91.110
S       107.610       190.540        90.830
C       103.810       191.240        92.480
H       103.515       192.145        91.939
H       103.589       191.418        93.538
C       103.050       190.040        91.970
H       103.377       189.135        92.492
H       103.254       189.887        90.905
C       101.560       190.260        92.190
H       100.996       189.412        91.789
H       101.232       191.152        91.647
C       101.270       190.420        93.670
H       101.827       191.273        94.072
H       101.607       189.533        94.217
C        99.810       190.620        93.850
H        99.247       189.955        93.187
H        99.527       191.644        93.585
C        99.470       190.340        95.280
H        99.724       189.315        95.569
H       100.005       191.005        95.967
H        98.401       190.470        95.481
C       105.390       192.250        90.280
C       105.980       193.440        90.460
H       106.860       193.650        91.010
C       105.280       194.530        89.910
C       104.260       193.920        89.110
S       104.070       192.170        89.130
C       105.500       195.970        90.170
H       104.620       196.546        89.867
H       106.343       196.335        89.575
C       105.780       196.210        91.650
H       106.334       197.148        91.759
H       106.420       195.405        92.026
C       104.510       196.280        92.520
H       103.729       196.820        91.974
H       104.727       196.851        93.428
C       104.000       194.900        92.900
H       104.827       194.269        93.242
H       103.554       194.406        92.031
C       102.940       195.040        94.030
H       103.368       195.647        94.835
H       102.734       194.045        94.438
C       101.600       195.680        93.590
H       101.738       196.693        93.198
H       101.107       195.100        92.803
H       100.890       195.756        94.420
C       103.270       194.740        88.500
C       102.530       195.500        89.400
H       102.690       195.700        90.480
C       101.480       196.150        88.770
C       101.530       195.650        87.450
S       102.690       194.470        86.890
C       100.540       197.200        89.390
H        99.808       196.694        90.028
H        99.982       197.698        88.590
C       101.290       198.200        90.180
H       102.001       198.735        89.542
H       101.871       197.707        90.966
C       100.310       199.210        90.820
H        99.374       198.718        91.104
H       100.046       200.000        90.110
C       101.030       199.740        91.990
H       101.928       200.266        91.648
H       101.364       198.903        92.613
C       100.220       200.670        92.830
H       100.247       201.663        92.369
H       100.698       200.752        93.812
C        98.780       200.290        93.040
H        98.231       200.225        92.095
H        98.680       199.317        93.533
H        98.251       201.017        93.664
C       100.330       195.900        86.740
C       100.500       195.760        85.300
H       101.470       195.810        84.820
C        99.270       195.500        84.720
C        98.200       195.510        85.600
S        98.610       195.810        87.290
C        99.210       195.400        83.220
H        99.974       196.026        82.748
H        98.242       195.738        82.836
C        99.440       193.920        82.900
H        99.029       193.260        83.671
H       100.504       193.674        82.813
C        98.700       193.780        81.560
H        98.095       192.868        81.533
H        99.402       193.719        80.722
C        97.830       195.030        81.470
H        98.474       195.911        81.384
H        97.256       195.137        82.396
C        96.890       194.980        80.300
H        96.030       194.337        80.515
H        97.386       194.564        79.417
C        96.430       196.420        80.030
H        95.916       196.855        80.893
H        97.270       197.082        79.795
H        95.736       196.477        79.185
C        96.980       195.160        85.000
C        96.120       196.180        85.240
H        96.370       197.230        85.330
C        94.830       195.630        85.350
C        94.860       194.260        85.120
S        96.460       193.500        84.790
C        93.560       196.480        85.680
H        92.798       195.854        86.157
H        93.123       196.881        84.760
C        93.980       197.640        86.630
H        93.100       198.220        86.928
H        94.659       198.324        86.111
C        94.670       197.040        87.870
H        95.423       196.308        87.559
H        93.936       196.505        88.482
C        95.300       198.140        88.650
H        94.589       198.960        88.792
H        96.156       198.551        88.104
C        95.750       197.610        89.990
H        96.411       196.747        89.860
H        94.891       197.274        90.580
C        96.510       198.750        90.760
H        97.391       199.099        90.211
H        95.874       199.625        90.929
H        96.860       198.418        91.743
C        93.680       193.560        85.150
C        94.030       192.420        85.840
H        94.930       192.260        86.510
C        93.060       191.460        85.550
C        92.050       191.970        84.740
S        92.150       193.700        84.280
C        93.190       190.030        86.010
H        92.195       189.586        86.121
H        93.669       190.001        86.994
C        94.010       189.200        85.020
H        94.953       189.714        84.808
H        93.464       189.119        84.074
C        94.300       187.810        85.560
H        93.379       187.218        85.535
H        94.604       187.891        86.609
C        95.360       187.110        84.790
H        96.269       187.717        84.728
H        95.038       186.916        83.762
C        95.640       185.800        85.520
H        94.875       185.045        85.311
H        95.663       185.935        86.606
C        97.030       185.370        84.970
H        97.015       185.226        83.885
H        97.803       186.116        85.180
H        97.372       184.427        85.410
C        91.220       190.930        84.180
C        91.720       190.490        83.000
H        92.550       191.010        82.470
C        91.270       189.160        82.830
C        90.350       188.860        83.790
S        89.920       190.020        85.020
C        91.820       188.150        81.780
H        91.124       187.309        81.691
H        92.775       187.747        82.135
C        92.010       188.800        80.430
H        92.919       189.410        80.409
H        91.175       189.466        80.190
C        92.100       187.650        79.420
H        92.868       186.924        79.706
H        92.367       188.012        78.422
C        90.720       187.050        79.450
H        89.994       187.783        79.084
H        90.448       186.808        80.483
C        90.620       185.770        78.590
H        90.410       186.038        77.549
H        89.784       185.154        78.937
C        91.900       185.020        78.690
H        92.751       185.611        78.335
H        92.125       184.728        79.721
H        91.884       184.100        78.097
C        90.220       187.470        83.800
C        90.960       186.910        84.820
H        91.440       187.530        85.540
C        90.910       185.540        84.810
C        90.040       185.130        83.830
S        89.280       186.320        82.800
C        91.890       184.670        85.620
H        92.840       185.203        85.736
H        92.094       183.744        85.072
C        91.330       184.300        87.060
H        91.966       183.524        87.500
H        90.323       183.884        86.953
C        91.280       185.530        88.020
H        90.800       185.249        88.963
H        90.674       186.327        87.576
C        92.680       185.990        88.250
H        93.188       186.150        87.294
H        93.249       185.222        88.785
C        92.640       187.240        89.030
H        92.194       187.081        90.017
H        92.039       188.006        88.528
C        94.120       187.730        89.180
H        94.745       186.995        89.697
H        94.590       187.919        88.209
H        94.188       188.662        89.751
C        89.970       183.760        83.670
C        90.230       183.520        82.300
H        90.950       184.080        81.670
C        89.480       182.430        81.890
C        88.980       181.770        83.040
S        89.110       182.610        84.660
C        89.310       182.120        80.410
H        89.031       181.073        80.253
H        90.241       182.292        79.859
C        88.170       183.080        79.880
H        88.070       182.900        78.804
H        88.524       184.107        80.013
C        86.840       182.960        80.500
H        86.921       183.012        81.591
H        86.392       181.991        80.257
C        85.920       184.090        80.000
H        84.915       183.999        80.425
H        85.808       184.056        78.911
C        86.600       185.370        80.450
H        87.310       185.723        79.695
H        87.170       185.208        81.371
C        85.490       186.390        80.670
H        84.916       186.575        79.756
H        84.776       186.061        81.432
H        85.882       187.358        81.000
C        88.300       180.570        83.060
C        89.150       179.520        82.870
H        90.180       179.610        82.520
C        88.450       178.380        83.310
C        87.270       178.810        83.900
S        86.640       180.420        83.470
C        88.840       176.920        83.260
H        88.562       176.419        84.193
H        89.925       176.818        83.157
C        88.140       176.300        82.100
H        88.680       176.503        81.169
H        87.137       176.723        81.982
C        88.060       174.820        82.350
H        87.537       174.621        83.291
H        89.065       174.397        82.453
C        87.350       174.210        81.220
H        87.752       174.555        80.262
H        86.287       174.471        81.228
C        87.530       172.690        81.360
H        87.094       172.371        82.312
H        88.601       172.465        81.398
C        86.900       171.900        80.240
H        85.820       172.070        80.175
H        87.322       172.164        79.264
H        87.044       170.822        80.367
C        86.890       178.340        85.130
C        87.870       178.810        85.990
H        88.890       179.020        85.660
C        87.180       179.340        87.130
C        85.770       179.200        86.940
S        85.170       178.130        85.670
C        87.710       180.150        88.360
H        87.965       179.464        89.174
H        86.925       180.817        88.731
C        88.930       180.950        87.940
H        88.720       181.529        87.035
H        89.768       180.284        87.707
C        89.290       181.880        89.100
H        88.395       182.444        89.384
H        90.035       182.602        88.749
C        89.830       181.180        90.320
H        90.793       180.700        90.119
H        89.153       180.394        90.670
C        89.970       182.300        91.360
H        90.273       181.851        92.312
H        88.987       182.759        91.507
C        90.980       183.420        91.010
H        91.995       183.031        90.880
H        90.716       183.934        90.080
H        91.031       184.185        91.792
C        85.170       180.360        87.500
C        84.930       181.330        86.560
H        85.020       181.190        85.450
C        84.450       182.490        87.190
C        84.200       182.150        88.530
S        84.400       180.460        89.020
C        84.130       183.800        86.510
H        84.802       183.937        85.656
H        84.316       184.624        87.207
C        82.680       183.880        86.020
H        82.032       184.357        86.763
H        82.266       182.884        85.830
C        82.760       184.710        84.730
H        83.029       185.742        84.976
H        81.775       184.737        84.252
C        83.780       184.130        83.770
H        84.668       183.745        84.283
H        84.141       184.867        83.045
C        82.960       183.050        83.140
H        82.146       182.733        83.800
H        83.565       182.162        82.932
C        82.390       183.640        81.820
H        81.765       184.521        82.001
H        83.184       183.950        81.133
H        81.769       182.916        81.282
C        84.130       183.290        89.280
C        85.420       183.600        89.790
H        86.340       183.100        89.690
C        85.330       184.920        90.290
C        84.020       185.410        90.200
H        83.780       186.460        90.270
S        82.740       184.340        89.620
C        86.480       185.670        90.970
H        86.865       184.645        90.965
H        86.394       186.034        91.999
C        87.240       186.620        90.040
H        86.623       187.456        89.695
H        87.615       186.120        89.141
C        88.370       187.070        90.980
H        88.876       186.174        91.356
H        87.916       187.579        91.837
C        89.430       188.000        90.380
H        90.313       187.423        90.088
H        89.758       188.728        91.129
C        88.840       188.690        89.200
H        87.988       189.308        89.501
H        88.465       187.961        88.474
C        89.920       189.560        88.560
H        90.303       190.315        89.254
H        90.780       188.969        88.228
H        89.547       190.097        87.682
